! Generated by BlenderFDS
! Thu, 29 Jul 2010 15:59:47
! Voxel Size: 0.050, 0.050, 0.050

&HEAD CHID='test_2', TITLE='This is a test fire, case 2' /

! Start of header file
!!! General configuration (this is my custom header)

&TIME T_END=900.0 /

&REAC ID='polyurethane', SOOT_YIELD=0.1875, CO_YIELD=0.02775,
      C=1.0, H=1.75, O=0.25, N=0.065,
      HEAT_OF_COMBUSTION=25300., IDEAL=.TRUE. /
      Gas phase reaction: polyurethane flexible foam (means) from
      Tewarson SFPE Handbook 3rd ed,
      SFPE handbook table 3-4.14, p. 3-112.

&MATL ID='Gypsum plaster', CONDUCTIVITY=0.48,
      SPECIFIC_HEAT=0.84, DENSITY=1440. /
      Thermo-physical properties of gypsum plaster.

&PROP ID='acme smoke detector', QUANTITY='CHAMBER OBSCURATION',
      LENGTH=1.8, ACTIVATION_OBSCURATION=3.28 /
      
&ISOF QUANTITY='TEMPERATURE', VALUE(1)=60. /
&ISOF QUANTITY='VISIBILITY', VALUE(1)=10. /
&BNDF QUANTITY='ADIABATIC SURFACE TEMPERATURE' /
! End of header file

!!! Boundary conditions defs

&SURF ID='Gypsum wall', RGB=204,199,56, MATL_ID='Gypsum plaster', THICKNESS=0.03 /
&SURF ID='Burner bc', RGB=204,0,0, HRRPUA=1000., FYI='A burner bc' /
&SURF ID='Glass', RGB=0,204,199, TRANSPARENCY=0.200 /

!!! Computational domain

! IJK=50,50,30 (75000 cells, actual size 0.100, 0.100, 0.100)
&MESH ID='Domain', XB=-2.500,2.500,-2.500,2.500,0.000,3.000, IJK=50,50,30 /

!!! Geometry

! Start object
&VENT ID='External bc', PBX=-2.500, SURF_ID='OPEN' /
&VENT ID='External bc_1', PBX=2.500, SURF_ID='OPEN' /
&VENT ID='External bc_2', PBY=-2.500, SURF_ID='OPEN' /
&VENT ID='External bc_3', PBY=2.500, SURF_ID='OPEN' /
&VENT ID='External bc_4', PBZ=3.000, SURF_ID='OPEN' /
! End object
&VENT ID='Ground', PBZ=0.000, SURF_ID='INERT' /
! Start object
&OBST ID='Ceiling', XB=-1.425,0.225,-1.425,-1.325,2.775,3.025, SURF_ID='Gypsum wall' /
&OBST ID='Ceiling_1', XB=-1.425,0.575,-1.325,-1.025,2.775,3.025, SURF_ID='Gypsum wall' /
&OBST ID='Ceiling_2', XB=-1.425,1.025,-1.025,-0.475,2.775,3.025, SURF_ID='Gypsum wall' /
&OBST ID='Ceiling_3', XB=-1.425,1.375,-0.475,-0.225,2.775,3.025, SURF_ID='Gypsum wall' /
&OBST ID='Ceiling_4', XB=-1.425,1.425,-0.225,1.425,2.775,3.025, SURF_ID='Gypsum wall' /
&OBST ID='Ceiling_5', XB=0.225,0.475,-1.375,-1.325,2.775,3.025, SURF_ID='Gypsum wall' /
&OBST ID='Ceiling_6', XB=0.575,0.675,-1.275,-1.175,2.775,3.025, SURF_ID='Gypsum wall' /
&OBST ID='Ceiling_7', XB=0.575,0.825,-1.175,-1.075,2.775,3.025, SURF_ID='Gypsum wall' /
&OBST ID='Ceiling_8', XB=0.575,0.975,-1.075,-1.025,2.775,3.025, SURF_ID='Gypsum wall' /
&OBST ID='Ceiling_9', XB=0.675,0.775,-1.225,-1.175,2.775,3.025, SURF_ID='Gypsum wall' /
&OBST ID='Ceiling_10', XB=0.825,0.925,-1.125,-1.075,2.775,3.025, SURF_ID='Gypsum wall' /
&OBST ID='Ceiling_11', XB=1.025,1.075,-0.975,-0.925,2.775,3.025, SURF_ID='Gypsum wall' /
&OBST ID='Ceiling_12', XB=1.025,1.125,-0.925,-0.825,2.775,3.025, SURF_ID='Gypsum wall' /
&OBST ID='Ceiling_13', XB=1.025,1.175,-0.825,-0.675,2.775,3.025, SURF_ID='Gypsum wall' /
&OBST ID='Ceiling_14', XB=1.025,1.275,-0.675,-0.475,2.775,3.025, SURF_ID='Gypsum wall' /
&OBST ID='Ceiling_15', XB=1.175,1.225,-0.775,-0.675,2.775,3.025, SURF_ID='Gypsum wall' /
&OBST ID='Ceiling_16', XB=1.275,1.325,-0.575,-0.475,2.775,3.025, SURF_ID='Gypsum wall' /
! End object
&OBST ID='Glass door', XB=-1.540,-1.440,-0.500,0.500,0.000,2.000, SURF_ID='Glass',
      DEVC_ID='Point door breaker' /
! Start object
&OBST ID='Wall', XB=-1.575,-1.375,-1.375,-0.475,-0.025,1.975, SURF_ID='Gypsum wall',
      SAWTOOTH=.False., FYI='Voxelized walls' /
&OBST ID='Wall_1', XB=-1.575,-1.375,-1.375,1.375,1.975,3.025, SURF_ID='Gypsum wall',
      SAWTOOTH=.False., FYI='Voxelized walls' /
&OBST ID='Wall_2', XB=-1.575,-1.375,0.475,1.375,-0.025,1.975, SURF_ID='Gypsum wall',
      SAWTOOTH=.False., FYI='Voxelized walls' /
&OBST ID='Wall_3', XB=-1.575,-0.675,-1.575,-1.525,-0.025,3.025, SURF_ID='Gypsum wall',
      SAWTOOTH=.False., FYI='Voxelized walls' /
&OBST ID='Wall_4', XB=-1.575,0.625,-1.525,-1.475,-0.025,3.025, SURF_ID='Gypsum wall',
      SAWTOOTH=.False., FYI='Voxelized walls' /
&OBST ID='Wall_5', XB=-1.575,0.675,-1.475,-1.375,-0.025,3.025, SURF_ID='Gypsum wall',
      SAWTOOTH=.False., FYI='Voxelized walls' /
&OBST ID='Wall_6', XB=-1.575,1.375,1.375,1.575,-0.025,3.025, SURF_ID='Gypsum wall',
      SAWTOOTH=.False., FYI='Voxelized walls' /
&OBST ID='Wall_7', XB=-0.675,0.225,-1.625,-1.525,-0.025,3.025, SURF_ID='Gypsum wall',
      SAWTOOTH=.False., FYI='Voxelized walls' /
&OBST ID='Wall_8', XB=0.175,0.625,-1.375,-1.325,1.125,3.025, SURF_ID='Gypsum wall',
      SAWTOOTH=.False., FYI='Voxelized walls' /
&OBST ID='Wall_9', XB=0.175,0.925,-1.375,-1.325,-0.025,1.125, SURF_ID='Gypsum wall',
      SAWTOOTH=.False., FYI='Voxelized walls' /
&OBST ID='Wall_10', XB=0.225,0.475,-1.575,-1.525,-0.025,3.025, SURF_ID='Gypsum wall',
      SAWTOOTH=.False., FYI='Voxelized walls' /
&OBST ID='Wall_11', XB=0.425,0.525,-1.325,-1.275,1.225,1.825, SURF_ID='Gypsum wall',
      SAWTOOTH=.False., FYI='Voxelized walls' /
&OBST ID='Wall_12', XB=0.425,0.675,-1.325,-1.275,1.825,3.025, SURF_ID='Gypsum wall',
      SAWTOOTH=.False., FYI='Voxelized walls' /
&OBST ID='Wall_13', XB=0.425,0.725,-1.325,-1.275,1.075,1.125, SURF_ID='Gypsum wall',
      SAWTOOTH=.False., FYI='Voxelized walls' /
&OBST ID='Wall_14', XB=0.425,0.775,-1.325,-1.275,1.175,1.225, SURF_ID='Gypsum wall',
      SAWTOOTH=.False., FYI='Voxelized walls' /
&OBST ID='Wall_15', XB=0.425,0.875,-1.325,-1.275,1.125,1.175, SURF_ID='Gypsum wall',
      SAWTOOTH=.False., FYI='Voxelized walls' /
&OBST ID='Wall_16', XB=0.425,0.975,-1.325,-1.275,-0.025,1.075, SURF_ID='Gypsum wall',
      SAWTOOTH=.False., FYI='Voxelized walls' /
&OBST ID='Wall_17', XB=0.525,0.575,-1.275,-1.225,1.475,1.525, SURF_ID='Gypsum wall',
      SAWTOOTH=.False., FYI='Voxelized walls' /
&OBST ID='Wall_18', XB=0.525,0.625,-1.325,-1.275,1.475,1.525, SURF_ID='Gypsum wall',
      SAWTOOTH=.False., FYI='Voxelized walls' /
&OBST ID='Wall_19', XB=0.525,0.625,-1.325,-1.225,1.225,1.475, SURF_ID='Gypsum wall',
      SAWTOOTH=.False., FYI='Voxelized walls' /
&OBST ID='Wall_20', XB=0.525,0.625,-1.325,-1.225,1.525,1.775, SURF_ID='Gypsum wall',
      SAWTOOTH=.False., FYI='Voxelized walls' /
&OBST ID='Wall_21', XB=0.525,0.625,-1.275,-1.225,1.075,1.175, SURF_ID='Gypsum wall',
      SAWTOOTH=.False., FYI='Voxelized walls' /
&OBST ID='Wall_22', XB=0.525,0.625,-1.275,-1.225,1.825,1.925, SURF_ID='Gypsum wall',
      SAWTOOTH=.False., FYI='Voxelized walls' /
&OBST ID='Wall_23', XB=0.525,0.725,-1.275,-1.225,1.175,1.225, SURF_ID='Gypsum wall',
      SAWTOOTH=.False., FYI='Voxelized walls' /
&OBST ID='Wall_24', XB=0.525,0.775,-1.325,-1.225,1.775,1.825, SURF_ID='Gypsum wall',
      SAWTOOTH=.False., FYI='Voxelized walls' /
&OBST ID='Wall_25', XB=0.525,1.025,-1.275,-1.225,-0.025,1.075, SURF_ID='Gypsum wall',
      SAWTOOTH=.False., FYI='Voxelized walls' /
&OBST ID='Wall_26', XB=0.525,1.025,-1.275,-1.225,1.925,3.025, SURF_ID='Gypsum wall',
      SAWTOOTH=.False., FYI='Voxelized walls' /
&OBST ID='Wall_27', XB=0.625,0.675,-1.375,-1.325,1.275,1.425, SURF_ID='Gypsum wall',
      SAWTOOTH=.False., FYI='Voxelized walls' /
&OBST ID='Wall_28', XB=0.625,0.675,-1.375,-1.325,1.575,1.625, SURF_ID='Gypsum wall',
      SAWTOOTH=.False., FYI='Voxelized walls' /
&OBST ID='Wall_29', XB=0.625,0.675,-1.375,-1.325,1.775,3.025, SURF_ID='Gypsum wall',
      SAWTOOTH=.False., FYI='Voxelized walls' /
&OBST ID='Wall_30', XB=0.625,0.675,-1.375,-1.275,1.625,1.775, SURF_ID='Gypsum wall',
      SAWTOOTH=.False., FYI='Voxelized walls' /
&OBST ID='Wall_31', XB=0.625,0.675,-1.325,-1.275,1.275,1.375, SURF_ID='Gypsum wall',
      SAWTOOTH=.False., FYI='Voxelized walls' /
&OBST ID='Wall_32', XB=0.625,0.675,-1.275,-1.225,1.225,1.325, SURF_ID='Gypsum wall',
      SAWTOOTH=.False., FYI='Voxelized walls' /
&OBST ID='Wall_33', XB=0.625,0.675,-1.275,-1.225,1.675,1.775, SURF_ID='Gypsum wall',
      SAWTOOTH=.False., FYI='Voxelized walls' /
&OBST ID='Wall_34', XB=0.625,0.725,-1.375,-1.275,1.225,1.275, SURF_ID='Gypsum wall',
      SAWTOOTH=.False., FYI='Voxelized walls' /
&OBST ID='Wall_35', XB=0.625,0.725,-1.275,-1.175,1.075,1.125, SURF_ID='Gypsum wall',
      SAWTOOTH=.False., FYI='Voxelized walls' /
&OBST ID='Wall_36', XB=0.625,0.725,-1.225,-1.175,1.175,1.225, SURF_ID='Gypsum wall',
      SAWTOOTH=.False., FYI='Voxelized walls' /
&OBST ID='Wall_37', XB=0.625,0.725,-1.225,-1.175,1.775,1.825, SURF_ID='Gypsum wall',
      SAWTOOTH=.False., FYI='Voxelized walls' /
&OBST ID='Wall_38', XB=0.625,0.775,-1.375,-1.325,1.175,1.225, SURF_ID='Gypsum wall',
      SAWTOOTH=.False., FYI='Voxelized walls' /
&OBST ID='Wall_39', XB=0.625,0.775,-1.275,-1.175,1.125,1.175, SURF_ID='Gypsum wall',
      SAWTOOTH=.False., FYI='Voxelized walls' /
&OBST ID='Wall_40', XB=0.625,0.775,-1.275,-1.175,1.825,1.925, SURF_ID='Gypsum wall',
      SAWTOOTH=.False., FYI='Voxelized walls' /
&OBST ID='Wall_41', XB=0.625,0.875,-1.375,-1.325,1.125,1.175, SURF_ID='Gypsum wall',
      SAWTOOTH=.False., FYI='Voxelized walls' /
&OBST ID='Wall_42', XB=0.625,1.025,-1.225,-1.175,1.025,1.075, SURF_ID='Gypsum wall',
      SAWTOOTH=.False., FYI='Voxelized walls' /
&OBST ID='Wall_43', XB=0.625,1.075,-1.225,-1.175,-0.025,0.475, SURF_ID='Gypsum wall',
      SAWTOOTH=.False., FYI='Voxelized walls' /
&OBST ID='Wall_44', XB=0.625,1.075,-1.225,-1.175,1.925,1.975, SURF_ID='Gypsum wall',
      SAWTOOTH=.False., FYI='Voxelized walls' /
&OBST ID='Wall_45', XB=0.625,1.075,-1.225,-1.175,2.025,3.025, SURF_ID='Gypsum wall',
      SAWTOOTH=.False., FYI='Voxelized walls' /
&OBST ID='Wall_46', XB=0.625,1.125,-1.225,-1.175,0.475,1.025, SURF_ID='Gypsum wall',
      SAWTOOTH=.False., FYI='Voxelized walls' /
&OBST ID='Wall_47', XB=0.625,1.125,-1.225,-1.175,1.975,2.025, SURF_ID='Gypsum wall',
      SAWTOOTH=.False., FYI='Voxelized walls' /
&OBST ID='Wall_48', XB=0.675,0.725,-1.475,-1.425,-0.025,1.325, SURF_ID='Gypsum wall',
      SAWTOOTH=.False., FYI='Voxelized walls' /
&OBST ID='Wall_49', XB=0.675,0.725,-1.475,-1.425,1.675,3.025, SURF_ID='Gypsum wall',
      SAWTOOTH=.False., FYI='Voxelized walls' /
&OBST ID='Wall_50', XB=0.675,0.725,-1.425,-1.325,1.275,1.325, SURF_ID='Gypsum wall',
      SAWTOOTH=.False., FYI='Voxelized walls' /
&OBST ID='Wall_51', XB=0.675,0.725,-1.425,-1.325,1.675,1.725, SURF_ID='Gypsum wall',
      SAWTOOTH=.False., FYI='Voxelized walls' /
&OBST ID='Wall_52', XB=0.675,0.725,-1.325,-1.225,1.725,1.775, SURF_ID='Gypsum wall',
      SAWTOOTH=.False., FYI='Voxelized walls' /
&OBST ID='Wall_53', XB=0.675,0.775,-1.425,-1.375,1.225,1.275, SURF_ID='Gypsum wall',
      SAWTOOTH=.False., FYI='Voxelized walls' /
&OBST ID='Wall_54', XB=0.675,0.775,-1.425,-1.325,1.725,1.775, SURF_ID='Gypsum wall',
      SAWTOOTH=.False., FYI='Voxelized walls' /
&OBST ID='Wall_55', XB=0.675,0.825,-1.425,-1.375,-0.025,1.225, SURF_ID='Gypsum wall',
      SAWTOOTH=.False., FYI='Voxelized walls' /
&OBST ID='Wall_56', XB=0.675,0.825,-1.425,-1.325,1.775,1.825, SURF_ID='Gypsum wall',
      SAWTOOTH=.False., FYI='Voxelized walls' /
&OBST ID='Wall_57', XB=0.675,0.825,-1.425,-1.275,1.825,3.025, SURF_ID='Gypsum wall',
      SAWTOOTH=.False., FYI='Voxelized walls' /
&OBST ID='Wall_58', XB=0.725,0.825,-1.325,-1.125,1.075,1.125, SURF_ID='Gypsum wall',
      SAWTOOTH=.False., FYI='Voxelized walls' /
&OBST ID='Wall_59', XB=0.725,0.875,-1.175,-1.125,1.875,1.925, SURF_ID='Gypsum wall',
      SAWTOOTH=.False., FYI='Voxelized walls' /
&OBST ID='Wall_60', XB=0.725,0.975,-1.175,-1.125,1.025,1.075, SURF_ID='Gypsum wall',
      SAWTOOTH=.False., FYI='Voxelized walls' /
&OBST ID='Wall_61', XB=0.725,1.125,-1.175,-1.125,1.925,3.025, SURF_ID='Gypsum wall',
      SAWTOOTH=.False., FYI='Voxelized walls' /
&OBST ID='Wall_62', XB=0.725,1.175,-1.175,-1.125,-0.025,1.025, SURF_ID='Gypsum wall',
      SAWTOOTH=.False., FYI='Voxelized walls' /
&OBST ID='Wall_63', XB=0.775,0.825,-1.275,-1.225,1.125,1.175, SURF_ID='Gypsum wall',
      SAWTOOTH=.False., FYI='Voxelized walls' /
&OBST ID='Wall_64', XB=0.775,0.825,-1.275,-1.225,1.825,1.875, SURF_ID='Gypsum wall',
      SAWTOOTH=.False., FYI='Voxelized walls' /
&OBST ID='Wall_65', XB=0.775,0.875,-1.225,-1.175,1.875,1.925, SURF_ID='Gypsum wall',
      SAWTOOTH=.False., FYI='Voxelized walls' /
&OBST ID='Wall_66', XB=0.775,0.875,-1.125,-1.075,-0.025,0.775, SURF_ID='Gypsum wall',
      SAWTOOTH=.False., FYI='Voxelized walls' /
&OBST ID='Wall_67', XB=0.775,0.925,-1.275,-1.225,1.875,1.925, SURF_ID='Gypsum wall',
      SAWTOOTH=.False., FYI='Voxelized walls' /
&OBST ID='Wall_68', XB=0.775,0.975,-1.125,-1.075,1.025,1.075, SURF_ID='Gypsum wall',
      SAWTOOTH=.False., FYI='Voxelized walls' /
&OBST ID='Wall_69', XB=0.775,0.975,-1.125,-1.075,1.925,1.975, SURF_ID='Gypsum wall',
      SAWTOOTH=.False., FYI='Voxelized walls' /
&OBST ID='Wall_70', XB=0.775,1.175,-1.125,-1.075,0.775,1.025, SURF_ID='Gypsum wall',
      SAWTOOTH=.False., FYI='Voxelized walls' /
&OBST ID='Wall_71', XB=0.775,1.175,-1.125,-1.075,1.975,3.025, SURF_ID='Gypsum wall',
      SAWTOOTH=.False., FYI='Voxelized walls' /
&OBST ID='Wall_72', XB=0.825,0.875,-1.375,-1.275,1.825,1.875, SURF_ID='Gypsum wall',
      SAWTOOTH=.False., FYI='Voxelized walls' /
&OBST ID='Wall_73', XB=0.825,0.875,-1.225,-1.175,1.075,1.125, SURF_ID='Gypsum wall',
      SAWTOOTH=.False., FYI='Voxelized walls' /
&OBST ID='Wall_74', XB=0.825,0.875,-1.075,-1.025,1.975,2.175, SURF_ID='Gypsum wall',
      SAWTOOTH=.False., FYI='Voxelized walls' /
&OBST ID='Wall_75', XB=0.825,0.925,-1.375,-1.325,1.875,3.025, SURF_ID='Gypsum wall',
      SAWTOOTH=.False., FYI='Voxelized walls' /
&OBST ID='Wall_76', XB=0.825,0.925,-1.325,-1.275,1.875,1.925, SURF_ID='Gypsum wall',
      SAWTOOTH=.False., FYI='Voxelized walls' /
&OBST ID='Wall_77', XB=0.825,0.925,-1.325,-1.225,1.075,1.125, SURF_ID='Gypsum wall',
      SAWTOOTH=.False., FYI='Voxelized walls' /
&OBST ID='Wall_78', XB=0.825,0.975,-1.325,-1.275,1.925,3.025, SURF_ID='Gypsum wall',
      SAWTOOTH=.False., FYI='Voxelized walls' /
&OBST ID='Wall_79', XB=0.825,0.975,-1.075,-1.025,1.925,1.975, SURF_ID='Gypsum wall',
      SAWTOOTH=.False., FYI='Voxelized walls' /
&OBST ID='Wall_80', XB=0.875,0.925,-1.075,-1.025,1.025,1.075, SURF_ID='Gypsum wall',
      SAWTOOTH=.False., FYI='Voxelized walls' /
&OBST ID='Wall_81', XB=0.875,0.925,-1.025,-0.975,1.975,2.175, SURF_ID='Gypsum wall',
      SAWTOOTH=.False., FYI='Voxelized walls' /
&OBST ID='Wall_82', XB=0.875,1.025,-1.025,-0.975,1.925,1.975, SURF_ID='Gypsum wall',
      SAWTOOTH=.False., FYI='Voxelized walls' /
&OBST ID='Wall_83', XB=0.875,1.225,-1.125,-1.025,-0.025,0.775, SURF_ID='Gypsum wall',
      SAWTOOTH=.False., FYI='Voxelized walls' /
&OBST ID='Wall_84', XB=0.875,1.225,-1.075,-1.025,0.775,1.025, SURF_ID='Gypsum wall',
      SAWTOOTH=.False., FYI='Voxelized walls' /
&OBST ID='Wall_85', XB=0.875,1.225,-1.075,-1.025,1.975,3.025, SURF_ID='Gypsum wall',
      SAWTOOTH=.False., FYI='Voxelized walls' /
&OBST ID='Wall_86', XB=0.925,1.275,-1.025,-0.975,-0.025,1.025, SURF_ID='Gypsum wall',
      SAWTOOTH=.False., FYI='Voxelized walls' /
&OBST ID='Wall_87', XB=0.925,1.275,-1.025,-0.975,1.975,3.025, SURF_ID='Gypsum wall',
      SAWTOOTH=.False., FYI='Voxelized walls' /
&OBST ID='Wall_88', XB=0.925,1.325,-0.975,-0.925,1.925,2.175, SURF_ID='Gypsum wall',
      SAWTOOTH=.False., FYI='Voxelized walls' /
&OBST ID='Wall_89', XB=0.975,1.025,-0.925,-0.875,1.925,2.175, SURF_ID='Gypsum wall',
      SAWTOOTH=.False., FYI='Voxelized walls' /
&OBST ID='Wall_90', XB=0.975,1.325,-0.975,-0.925,-0.025,1.025, SURF_ID='Gypsum wall',
      SAWTOOTH=.False., FYI='Voxelized walls' /
&OBST ID='Wall_91', XB=0.975,1.325,-0.975,-0.925,2.175,3.025, SURF_ID='Gypsum wall',
      SAWTOOTH=.False., FYI='Voxelized walls' /
&OBST ID='Wall_92', XB=1.025,1.375,-0.925,-0.875,-0.025,1.075, SURF_ID='Gypsum wall',
      SAWTOOTH=.False., FYI='Voxelized walls' /
&OBST ID='Wall_93', XB=1.025,1.375,-0.925,-0.875,1.925,3.025, SURF_ID='Gypsum wall',
      SAWTOOTH=.False., FYI='Voxelized walls' /
&OBST ID='Wall_94', XB=1.025,1.375,-0.875,-0.825,1.925,2.175, SURF_ID='Gypsum wall',
      SAWTOOTH=.False., FYI='Voxelized walls' /
&OBST ID='Wall_95', XB=1.075,1.125,-1.225,-1.175,2.625,2.675, SURF_ID='Gypsum wall',
      SAWTOOTH=.False., FYI='Voxelized walls' /
&OBST ID='Wall_96', XB=1.075,1.125,-0.975,-0.925,1.025,1.075, SURF_ID='Gypsum wall',
      SAWTOOTH=.False., FYI='Voxelized walls' /
&OBST ID='Wall_97', XB=1.075,1.125,-0.875,-0.775,2.175,3.025, SURF_ID='Gypsum wall',
      SAWTOOTH=.False., FYI='Voxelized walls' /
&OBST ID='Wall_98', XB=1.075,1.125,-0.825,-0.775,-0.025,1.075, SURF_ID='Gypsum wall',
      SAWTOOTH=.False., FYI='Voxelized walls' /
&OBST ID='Wall_99', XB=1.075,1.125,-0.825,-0.775,1.925,2.175, SURF_ID='Gypsum wall',
      SAWTOOTH=.False., FYI='Voxelized walls' /
&OBST ID='Wall_100', XB=1.075,1.175,-1.125,-1.075,1.925,1.975, SURF_ID='Gypsum wall',
      SAWTOOTH=.False., FYI='Voxelized walls' /
&OBST ID='Wall_101', XB=1.075,1.375,-0.875,-0.825,-0.025,1.075, SURF_ID='Gypsum wall',
      SAWTOOTH=.False., FYI='Voxelized walls' /
&OBST ID='Wall_102', XB=1.125,1.175,-1.175,-1.125,1.975,2.025, SURF_ID='Gypsum wall',
      SAWTOOTH=.False., FYI='Voxelized walls' /
&OBST ID='Wall_103', XB=1.125,1.175,-1.175,-1.125,2.625,3.025, SURF_ID='Gypsum wall',
      SAWTOOTH=.False., FYI='Voxelized walls' /
&OBST ID='Wall_104', XB=1.125,1.225,-1.075,-1.025,1.925,1.975, SURF_ID='Gypsum wall',
      SAWTOOTH=.False., FYI='Voxelized walls' /
&OBST ID='Wall_105', XB=1.125,1.275,-1.025,-0.975,1.925,1.975, SURF_ID='Gypsum wall',
      SAWTOOTH=.False., FYI='Voxelized walls' /
&OBST ID='Wall_106', XB=1.125,1.275,-1.025,-0.925,1.025,1.075, SURF_ID='Gypsum wall',
      SAWTOOTH=.False., FYI='Voxelized walls' /
&OBST ID='Wall_107', XB=1.125,1.375,-0.875,-0.825,2.175,3.025, SURF_ID='Gypsum wall',
      SAWTOOTH=.False., FYI='Voxelized walls' /
&OBST ID='Wall_108', XB=1.125,1.425,-0.825,-0.725,-0.025,1.125, SURF_ID='Gypsum wall',
      SAWTOOTH=.False., FYI='Voxelized walls' /
&OBST ID='Wall_109', XB=1.125,1.425,-0.825,-0.725,1.875,3.025, SURF_ID='Gypsum wall',
      SAWTOOTH=.False., FYI='Voxelized walls' /
&OBST ID='Wall_110', XB=1.175,1.225,-1.125,-1.075,1.975,2.025, SURF_ID='Gypsum wall',
      SAWTOOTH=.False., FYI='Voxelized walls' /
&OBST ID='Wall_111', XB=1.175,1.225,-1.125,-1.075,2.625,2.875, SURF_ID='Gypsum wall',
      SAWTOOTH=.False., FYI='Voxelized walls' /
&OBST ID='Wall_112', XB=1.175,1.225,-0.775,-0.725,1.825,1.875, SURF_ID='Gypsum wall',
      SAWTOOTH=.False., FYI='Voxelized walls' /
&OBST ID='Wall_113', XB=1.175,1.275,-0.875,-0.825,1.875,1.925, SURF_ID='Gypsum wall',
      SAWTOOTH=.False., FYI='Voxelized walls' /
&OBST ID='Wall_114', XB=1.175,1.375,-0.875,-0.825,1.075,1.125, SURF_ID='Gypsum wall',
      SAWTOOTH=.False., FYI='Voxelized walls' /
&OBST ID='Wall_115', XB=1.175,1.425,-0.775,-0.725,1.125,1.175, SURF_ID='Gypsum wall',
      SAWTOOTH=.False., FYI='Voxelized walls' /
&OBST ID='Wall_116', XB=1.175,1.475,-0.725,-0.625,-0.025,1.225, SURF_ID='Gypsum wall',
      SAWTOOTH=.False., FYI='Voxelized walls' /
&OBST ID='Wall_117', XB=1.175,1.475,-0.725,-0.625,1.775,3.025, SURF_ID='Gypsum wall',
      SAWTOOTH=.False., FYI='Voxelized walls' /
&OBST ID='Wall_118', XB=1.225,1.275,-0.825,-0.775,1.125,1.175, SURF_ID='Gypsum wall',
      SAWTOOTH=.False., FYI='Voxelized walls' /
&OBST ID='Wall_119', XB=1.225,1.275,-0.675,-0.625,1.275,1.325, SURF_ID='Gypsum wall',
      SAWTOOTH=.False., FYI='Voxelized walls' /
&OBST ID='Wall_120', XB=1.225,1.275,-0.675,-0.625,1.675,1.775, SURF_ID='Gypsum wall',
      SAWTOOTH=.False., FYI='Voxelized walls' /
&OBST ID='Wall_121', XB=1.225,1.275,-0.625,-0.525,-0.025,1.475, SURF_ID='Gypsum wall',
      SAWTOOTH=.False., FYI='Voxelized walls' /
&OBST ID='Wall_122', XB=1.225,1.275,-0.625,-0.525,1.525,3.025, SURF_ID='Gypsum wall',
      SAWTOOTH=.False., FYI='Voxelized walls' /
&OBST ID='Wall_123', XB=1.225,1.275,-0.575,-0.525,1.475,1.525, SURF_ID='Gypsum wall',
      SAWTOOTH=.False., FYI='Voxelized walls' /
&OBST ID='Wall_124', XB=1.225,1.375,-0.925,-0.875,1.075,1.125, SURF_ID='Gypsum wall',
      SAWTOOTH=.False., FYI='Voxelized walls' /
&OBST ID='Wall_125', XB=1.225,1.375,-0.925,-0.875,1.875,1.925, SURF_ID='Gypsum wall',
      SAWTOOTH=.False., FYI='Voxelized walls' /
&OBST ID='Wall_126', XB=1.225,1.425,-0.825,-0.725,1.825,1.875, SURF_ID='Gypsum wall',
      SAWTOOTH=.False., FYI='Voxelized walls' /
&OBST ID='Wall_127', XB=1.225,1.425,-0.775,-0.725,1.175,1.225, SURF_ID='Gypsum wall',
      SAWTOOTH=.False., FYI='Voxelized walls' /
&OBST ID='Wall_128', XB=1.225,1.475,-0.725,-0.625,1.225,1.275, SURF_ID='Gypsum wall',
      SAWTOOTH=.False., FYI='Voxelized walls' /
&OBST ID='Wall_129', XB=1.275,1.325,-0.975,-0.925,1.025,1.075, SURF_ID='Gypsum wall',
      SAWTOOTH=.False., FYI='Voxelized walls' /
&OBST ID='Wall_130', XB=1.275,1.325,-0.475,-0.425,-0.025,3.025, SURF_ID='Gypsum wall',
      SAWTOOTH=.False., FYI='Voxelized walls' /
&OBST ID='Wall_131', XB=1.275,1.375,-0.875,-0.825,1.825,1.925, SURF_ID='Gypsum wall',
      SAWTOOTH=.False., FYI='Voxelized walls' /
&OBST ID='Wall_132', XB=1.275,1.375,-0.875,-0.775,1.125,1.175, SURF_ID='Gypsum wall',
      SAWTOOTH=.False., FYI='Voxelized walls' /
&OBST ID='Wall_133', XB=1.275,1.375,-0.775,-0.725,1.775,1.825, SURF_ID='Gypsum wall',
      SAWTOOTH=.False., FYI='Voxelized walls' /
&OBST ID='Wall_134', XB=1.275,1.375,-0.725,-0.675,1.725,1.775, SURF_ID='Gypsum wall',
      SAWTOOTH=.False., FYI='Voxelized walls' /
&OBST ID='Wall_135', XB=1.275,1.375,-0.675,-0.625,1.275,1.375, SURF_ID='Gypsum wall',
      SAWTOOTH=.False., FYI='Voxelized walls' /
&OBST ID='Wall_136', XB=1.275,1.475,-0.675,-0.625,1.625,1.775, SURF_ID='Gypsum wall',
      SAWTOOTH=.False., FYI='Voxelized walls' /
&OBST ID='Wall_137', XB=1.275,1.525,-0.625,-0.475,-0.025,3.025, SURF_ID='Gypsum wall',
      SAWTOOTH=.False., FYI='Voxelized walls' /
&OBST ID='Wall_138', XB=1.325,1.375,-0.675,-0.625,1.375,1.425, SURF_ID='Gypsum wall',
      SAWTOOTH=.False., FYI='Voxelized walls' /
&OBST ID='Wall_139', XB=1.325,1.375,-0.675,-0.625,1.575,1.625, SURF_ID='Gypsum wall',
      SAWTOOTH=.False., FYI='Voxelized walls' /
&OBST ID='Wall_140', XB=1.325,1.375,-0.475,-0.175,-0.025,3.025, SURF_ID='Gypsum wall',
      SAWTOOTH=.False., FYI='Voxelized walls' /
&OBST ID='Wall_141', XB=1.325,1.425,-0.825,-0.775,1.175,1.225, SURF_ID='Gypsum wall',
      SAWTOOTH=.False., FYI='Voxelized walls' /
&OBST ID='Wall_142', XB=1.325,1.425,-0.775,-0.725,1.225,1.275, SURF_ID='Gypsum wall',
      SAWTOOTH=.False., FYI='Voxelized walls' /
&OBST ID='Wall_143', XB=1.325,1.475,-0.725,-0.675,1.275,1.325, SURF_ID='Gypsum wall',
      SAWTOOTH=.False., FYI='Voxelized walls' /
&OBST ID='Wall_144', XB=1.325,1.475,-0.725,-0.675,1.675,1.725, SURF_ID='Gypsum wall',
      SAWTOOTH=.False., FYI='Voxelized walls' /
&OBST ID='Wall_145', XB=1.375,1.425,-0.825,-0.775,1.125,1.175, SURF_ID='Gypsum wall',
      SAWTOOTH=.False., FYI='Voxelized walls' /
&OBST ID='Wall_146', XB=1.375,1.425,-0.825,-0.725,1.775,1.825, SURF_ID='Gypsum wall',
      SAWTOOTH=.False., FYI='Voxelized walls' /
&OBST ID='Wall_147', XB=1.375,1.425,-0.775,-0.675,1.725,1.775, SURF_ID='Gypsum wall',
      SAWTOOTH=.False., FYI='Voxelized walls' /
&OBST ID='Wall_148', XB=1.375,1.475,-0.675,-0.625,1.275,1.625, SURF_ID='Gypsum wall',
      SAWTOOTH=.False., FYI='Voxelized walls' /
&OBST ID='Wall_149', XB=1.375,1.575,-0.475,1.575,-0.025,3.025, SURF_ID='Gypsum wall',
      SAWTOOTH=.False., FYI='Voxelized walls' /
&OBST ID='Wall_150', XB=1.425,1.475,-0.725,-0.675,1.725,1.775, SURF_ID='Gypsum wall',
      SAWTOOTH=.False., FYI='Voxelized walls' /
&OBST ID='Wall_151', XB=1.575,1.625,-0.225,0.675,-0.025,3.025, SURF_ID='Gypsum wall',
      SAWTOOTH=.False., FYI='Voxelized walls' /
! End object
&VENT ID='Burner2', XB=0.350,0.850,-0.850,-0.350,1.010,1.010, SURF_ID='Burner bc',
      FYI='Fire, near window' /
&OBST ID='Box2', XB=0.350,0.850,-0.850,-0.350,0.000,1.000, SURF_ID='Gypsum wall', FYI='near window' /

!!! Evacuation


!!! Control logic and output

&DEVC ID='Point smoke detector', XYZ=0.000,0.000,2.700, PROP_ID='acme smoke detector' /
! Start object
&DEVC ID='Thermocouple serie', XYZ=-0.000,0.000,0.100, QUANTITY='THERMOCOUPLE' /
&DEVC ID='Thermocouple serie_1', XYZ=-0.000,0.000,0.400, QUANTITY='THERMOCOUPLE' /
&DEVC ID='Thermocouple serie_2', XYZ=-0.000,0.000,0.700, QUANTITY='THERMOCOUPLE' /
&DEVC ID='Thermocouple serie_3', XYZ=-0.000,0.000,1.000, QUANTITY='THERMOCOUPLE' /
&DEVC ID='Thermocouple serie_4', XYZ=-0.000,0.000,1.300, QUANTITY='THERMOCOUPLE' /
&DEVC ID='Thermocouple serie_5', XYZ=-0.000,0.000,1.600, QUANTITY='THERMOCOUPLE' /
&DEVC ID='Thermocouple serie_6', XYZ=-0.000,0.000,1.900, QUANTITY='THERMOCOUPLE' /
&DEVC ID='Thermocouple serie_7', XYZ=-0.000,0.000,2.200, QUANTITY='THERMOCOUPLE' /
&DEVC ID='Thermocouple serie_8', XYZ=-0.000,0.000,2.500, QUANTITY='THERMOCOUPLE' /
! End object
! Start object
&DEVC ID='Beam detectors', XB=0.029,-1.271,-1.235,1.307,2.500,2.500,
      QUANTITY='PATH OBSCURATION', SETPOINT=0.33 , FYI='Two detectors' /
&DEVC ID='Beam detectors_1', XB=1.217,-1.271,0.043,1.307,2.500,2.500,
      QUANTITY='PATH OBSCURATION', SETPOINT=0.33 , FYI='Two detectors' /
! End object
! Start object
&SLCF QUANTITY='TEMPERATURE', VECTOR=.TRUE., PBX=0.000 /
&SLCF QUANTITY='TEMPERATURE', VECTOR=.TRUE., PBY=0.600 /
! End object
&DEVC ID='Point door breaker', XYZ=-1.300,0.000,2.000,
      QUANTITY='TEMPERATURE', SETPOINT=300., INITIAL_STATE=.TRUE., FYI='This breaks the door' /
! Start object
&SLCF QUANTITY='VISIBILITY', PBX=0.000 /
&SLCF QUANTITY='VISIBILITY', PBY=0.600 /
! End object

!!! Others


&TAIL  /
