! Generated by BlenderFDS 3.0.0 on Blender 2.69 (sub 0)
! Date: Sun, 22 Dec 2013, 08:36:06
! File: /home/egissi/Documenti/Argomenti/BlenderFDS/svn/trunk/examples/uni-build/uni-build_02.blend

! HEAD: Free text 'Free text' appended
&HEAD CHID='uni-build_s1' TITLE='University building, scenario 1' /
&MATL ID='Gypsum plaster', CONDUCTIVITY=0.48,
      SPECIFIC_HEAT=0.84, DENSITY=1440. /
      Thermo-physical properties of gypsum plaster.

&PROP ID='acme smoke detector', QUANTITY='CHAMBER OBSCURATION',
      LENGTH=1.8, ACTIVATION_OBSCURATION=3.28 /
      
&ISOF QUANTITY='TEMPERATURE', VALUE(1)=60. /
&ISOF QUANTITY='VISIBILITY', VALUE(1)=10. /
&BNDF QUANTITY='ADIABATIC SURFACE TEMPERATURE' /
! End of free text
&TIME T_BEGIN=0.0 T_END=0.0 /
&REAC FUEL='polyurethane' FYI='Polyurethane flexible foam (means), Tewarson SFPE Handbook 3rd ed, table 3-4.14, p. 3-112.' CO_YIELD=0.027750 SOOT_YIELD=0.187500 HEAT_OF_COMBUSTION=25300.0 IDEAL=.TRUE. C=1 H=1.75 O=0.25 N=0.065 /
&DUMP RENDER_FILE='uni-build_s1.GE1' /
! SURF: TAU_Q: HRR(t) has a t² ramp
&SURF ID='Burner' FYI='Est.d area 5.00 m², HRR max 1500 kW, fast t² ramp (US)' RGB=204,0,2 HRRPUA=300.000 TAU_Q=-178.9 /
&SURF ID='Glass pane' RGB=0,204,201 TRANSPARENCY=0.20 /
&SURF ID='Gypsum wall' RGB=184,186,136 /
! Building: group of namelists
! OBST: XB: 98 voxels, resolution 0.100 m, in 3 s (s:1 1f:0, 2g:0, 3g:0)
&OBST ID='Columns_0' XB=-15.147,-14.847,13.352,13.752,0.011,3.110 SURF_ID='Gypsum wall' /
&OBST ID='Columns_1' XB=-15.147,-14.847,13.352,13.752,4.410,7.509 SURF_ID='Gypsum wall' /
&OBST ID='Columns_2' XB=4.749,5.249,1.354,2.254,0.011,2.710 SURF_ID='Gypsum wall' /
&OBST ID='Columns_3' XB=4.749,5.249,1.354,2.254,4.410,7.109 SURF_ID='Gypsum wall' /
&OBST ID='Columns_4' XB=9.748,10.248,1.354,2.254,0.011,2.710 SURF_ID='Gypsum wall' /
&OBST ID='Columns_5' XB=9.748,10.248,1.354,2.254,4.410,7.109 SURF_ID='Gypsum wall' /
&OBST ID='Columns_6' XB=-20.247,-19.747,1.354,2.254,0.011,2.710 SURF_ID='Gypsum wall' /
&OBST ID='Columns_7' XB=-20.247,-19.747,1.354,2.254,4.410,7.109 SURF_ID='Gypsum wall' /
&OBST ID='Columns_8' XB=-25.246,-24.746,-2.245,-1.346,4.410,7.109 SURF_ID='Gypsum wall' /
&OBST ID='Columns_9' XB=-20.047,-19.747,-13.743,-13.343,0.011,3.110 SURF_ID='Gypsum wall' /
&OBST ID='Columns_10' XB=-20.047,-19.747,-13.743,-13.343,4.410,7.509 SURF_ID='Gypsum wall' /
&OBST ID='Columns_11' XB=-15.247,-14.747,1.354,2.254,0.011,2.710 SURF_ID='Gypsum wall' /
&OBST ID='Columns_12' XB=-15.247,-14.747,1.354,2.254,4.410,7.109 SURF_ID='Gypsum wall' /
&OBST ID='Columns_13' XB=-25.146,-24.846,-13.743,-13.343,0.011,3.110 SURF_ID='Gypsum wall' /
&OBST ID='Columns_14' XB=-25.146,-24.846,-13.743,-13.343,4.410,7.509 SURF_ID='Gypsum wall' /
&OBST ID='Columns_15' XB=4.749,5.249,-2.245,-1.346,0.011,2.710 SURF_ID='Gypsum wall' /
&OBST ID='Columns_16' XB=4.749,5.249,-2.245,-1.346,4.410,7.109 SURF_ID='Gypsum wall' /
&OBST ID='Columns_17' XB=-5.249,-4.949,13.352,13.752,0.011,3.110 SURF_ID='Gypsum wall' /
&OBST ID='Columns_18' XB=-5.249,-4.949,13.352,13.752,4.410,7.509 SURF_ID='Gypsum wall' /
&OBST ID='Columns_19' XB=9.748,10.248,-2.245,-1.346,0.011,2.710 SURF_ID='Gypsum wall' /
&OBST ID='Columns_20' XB=9.748,10.248,-2.245,-1.346,4.410,7.109 SURF_ID='Gypsum wall' /
&OBST ID='Columns_21' XB=14.747,15.247,1.354,2.254,0.011,2.710 SURF_ID='Gypsum wall' /
&OBST ID='Columns_22' XB=14.747,15.247,1.354,2.254,4.410,7.109 SURF_ID='Gypsum wall' /
&OBST ID='Columns_23' XB=-10.248,-9.748,1.354,2.254,0.011,2.710 SURF_ID='Gypsum wall' /
&OBST ID='Columns_24' XB=-10.248,-9.748,1.354,2.254,4.410,7.109 SURF_ID='Gypsum wall' /
&OBST ID='Columns_25' XB=-5.149,-4.849,-13.743,-13.343,0.011,3.110 SURF_ID='Gypsum wall' /
&OBST ID='Columns_26' XB=-5.149,-4.849,-13.743,-13.343,4.410,7.509 SURF_ID='Gypsum wall' /
&OBST ID='Columns_27' XB=-5.249,-4.749,1.354,2.254,0.011,2.710 SURF_ID='Gypsum wall' /
&OBST ID='Columns_28' XB=-5.249,-4.749,1.354,2.254,4.410,7.109 SURF_ID='Gypsum wall' /
&OBST ID='Columns_29' XB=-25.246,-24.746,1.354,2.254,4.410,7.109 SURF_ID='Gypsum wall' /
&OBST ID='Columns_30' XB=-15.247,-14.747,-2.245,-1.346,0.011,2.710 SURF_ID='Gypsum wall' /
&OBST ID='Columns_31' XB=-15.247,-14.747,-2.245,-1.346,4.410,7.109 SURF_ID='Gypsum wall' /
&OBST ID='Columns_32' XB=19.747,20.147,1.354,2.254,0.011,2.710 SURF_ID='Gypsum wall' /
&OBST ID='Columns_33' XB=19.747,20.147,1.354,2.254,4.410,7.109 SURF_ID='Gypsum wall' /
&OBST ID='Columns_34' XB=-30.245,-29.845,-13.743,-13.343,0.011,3.110 SURF_ID='Gypsum wall' /
&OBST ID='Columns_35' XB=-30.245,-29.845,-13.743,-13.343,4.410,7.509 SURF_ID='Gypsum wall' /
&OBST ID='Columns_36' XB=-10.148,-9.848,13.352,13.752,0.011,3.110 SURF_ID='Gypsum wall' /
&OBST ID='Columns_37' XB=-10.148,-9.848,13.352,13.752,4.410,7.509 SURF_ID='Gypsum wall' /
&OBST ID='Columns_38' XB=-2.250,-2.050,13.352,13.752,0.011,3.110 SURF_ID='Gypsum wall' /
&OBST ID='Columns_39' XB=-2.250,-2.050,13.352,13.752,4.410,7.509 SURF_ID='Gypsum wall' /
&OBST ID='Columns_40' XB=29.845,30.145,1.354,1.654,0.011,3.110 SURF_ID='Gypsum wall' /
&OBST ID='Columns_41' XB=29.845,30.145,1.354,1.654,4.410,7.509 SURF_ID='Gypsum wall' /
&OBST ID='Columns_42' XB=-20.247,-19.747,-2.245,-1.346,0.011,2.710 SURF_ID='Gypsum wall' /
&OBST ID='Columns_43' XB=-20.247,-19.747,-2.245,-1.346,4.410,7.109 SURF_ID='Gypsum wall' /
&OBST ID='Columns_44' XB=-15.147,-14.847,-13.743,-13.343,0.011,3.110 SURF_ID='Gypsum wall' /
&OBST ID='Columns_45' XB=-15.147,-14.847,-13.743,-13.343,4.410,7.509 SURF_ID='Gypsum wall' /
&OBST ID='Columns_46' XB=-10.248,-9.748,-2.245,-1.346,0.011,2.710 SURF_ID='Gypsum wall' /
&OBST ID='Columns_47' XB=-10.248,-9.748,-2.245,-1.346,4.410,7.109 SURF_ID='Gypsum wall' /
&OBST ID='Columns_48' XB=14.747,15.247,-2.245,-1.346,0.011,2.710 SURF_ID='Gypsum wall' /
&OBST ID='Columns_49' XB=14.747,15.247,-2.245,-1.346,4.410,7.109 SURF_ID='Gypsum wall' /
&OBST ID='Columns_50' XB=14.847,15.147,13.352,13.752,0.011,3.110 SURF_ID='Gypsum wall' /
&OBST ID='Columns_51' XB=14.847,15.147,13.352,13.752,4.410,7.509 SURF_ID='Gypsum wall' /
&OBST ID='Columns_52' XB=4.949,5.249,13.352,13.752,0.011,3.110 SURF_ID='Gypsum wall' /
&OBST ID='Columns_53' XB=4.949,5.249,13.352,13.752,4.410,7.509 SURF_ID='Gypsum wall' /
&OBST ID='Columns_54' XB=4.849,5.149,-13.743,-13.343,0.011,3.110 SURF_ID='Gypsum wall' /
&OBST ID='Columns_55' XB=4.849,5.149,-13.743,-13.343,4.410,7.509 SURF_ID='Gypsum wall' /
&OBST ID='Columns_56' XB=2.050,2.250,13.352,13.752,0.011,3.110 SURF_ID='Gypsum wall' /
&OBST ID='Columns_57' XB=2.050,2.250,13.352,13.752,4.410,7.509 SURF_ID='Gypsum wall' /
&OBST ID='Columns_58' XB=24.846,25.146,1.354,1.654,0.011,3.110 SURF_ID='Gypsum wall' /
&OBST ID='Columns_59' XB=24.746,25.246,-2.245,-1.346,4.410,7.109 SURF_ID='Gypsum wall' /
&OBST ID='Columns_60' XB=-20.047,-19.747,13.352,13.752,0.011,3.110 SURF_ID='Gypsum wall' /
&OBST ID='Columns_61' XB=-20.047,-19.747,13.352,13.752,4.410,7.509 SURF_ID='Gypsum wall' /
&OBST ID='Columns_62' XB=24.746,25.246,1.354,2.254,4.410,7.109 SURF_ID='Gypsum wall' /
&OBST ID='Columns_63' XB=29.845,30.245,13.352,13.752,0.011,3.110 SURF_ID='Gypsum wall' /
&OBST ID='Columns_64' XB=29.845,30.245,13.352,13.752,4.410,7.509 SURF_ID='Gypsum wall' /
&OBST ID='Columns_65' XB=-30.245,-29.845,13.352,13.752,0.011,3.110 SURF_ID='Gypsum wall' /
&OBST ID='Columns_66' XB=-30.245,-29.845,13.352,13.752,4.410,7.509 SURF_ID='Gypsum wall' /
&OBST ID='Columns_67' XB=-5.249,-4.749,-2.245,-1.346,0.011,2.710 SURF_ID='Gypsum wall' /
&OBST ID='Columns_68' XB=-5.249,-4.749,-2.245,-1.346,4.410,7.109 SURF_ID='Gypsum wall' /
&OBST ID='Columns_69' XB=19.747,20.147,-2.245,-1.346,0.011,2.710 SURF_ID='Gypsum wall' /
&OBST ID='Columns_70' XB=19.747,20.147,-2.245,-1.346,4.410,7.109 SURF_ID='Gypsum wall' /
&OBST ID='Columns_71' XB=9.848,10.148,-13.743,-13.343,0.011,3.110 SURF_ID='Gypsum wall' /
&OBST ID='Columns_72' XB=9.848,10.148,-13.743,-13.343,4.410,7.509 SURF_ID='Gypsum wall' /
&OBST ID='Columns_73' XB=9.848,10.148,13.352,13.752,0.011,3.110 SURF_ID='Gypsum wall' /
&OBST ID='Columns_74' XB=9.848,10.148,13.352,13.752,4.410,7.509 SURF_ID='Gypsum wall' /
&OBST ID='Columns_75' XB=29.845,30.245,-13.743,-13.343,0.011,3.110 SURF_ID='Gypsum wall' /
&OBST ID='Columns_76' XB=29.845,30.245,-13.743,-13.343,4.410,7.509 SURF_ID='Gypsum wall' /
&OBST ID='Columns_77' XB=-10.148,-9.848,-13.743,-13.343,0.011,3.110 SURF_ID='Gypsum wall' /
&OBST ID='Columns_78' XB=-10.148,-9.848,-13.743,-13.343,4.410,7.509 SURF_ID='Gypsum wall' /
&OBST ID='Columns_79' XB=14.847,15.147,-13.743,-13.343,0.011,3.110 SURF_ID='Gypsum wall' /
&OBST ID='Columns_80' XB=14.847,15.147,-13.743,-13.343,4.410,7.509 SURF_ID='Gypsum wall' /
&OBST ID='Columns_81' XB=-25.146,-24.846,13.352,13.752,0.011,3.110 SURF_ID='Gypsum wall' /
&OBST ID='Columns_82' XB=-25.146,-24.846,13.352,13.752,4.410,7.509 SURF_ID='Gypsum wall' /
&OBST ID='Columns_83' XB=24.846,25.146,-1.645,-1.346,0.011,3.110 SURF_ID='Gypsum wall' /
&OBST ID='Columns_84' XB=24.846,25.146,-13.743,-13.343,0.011,3.110 SURF_ID='Gypsum wall' /
&OBST ID='Columns_85' XB=24.846,25.146,-13.743,-13.343,4.410,7.509 SURF_ID='Gypsum wall' /
&OBST ID='Columns_86' XB=19.847,20.147,-13.743,-13.343,0.011,3.110 SURF_ID='Gypsum wall' /
&OBST ID='Columns_87' XB=19.847,20.147,-13.743,-13.343,4.410,7.509 SURF_ID='Gypsum wall' /
&OBST ID='Columns_88' XB=-25.146,-24.846,-1.645,-1.346,0.011,3.110 SURF_ID='Gypsum wall' /
&OBST ID='Columns_89' XB=-30.145,-29.845,1.354,1.654,0.011,3.110 SURF_ID='Gypsum wall' /
&OBST ID='Columns_90' XB=-30.145,-29.845,-1.645,-1.346,0.011,3.110 SURF_ID='Gypsum wall' /
&OBST ID='Columns_91' XB=29.845,30.145,-1.645,-1.346,0.011,3.110 SURF_ID='Gypsum wall' /
&OBST ID='Columns_92' XB=29.845,30.145,-1.645,-1.346,4.410,7.509 SURF_ID='Gypsum wall' /
&OBST ID='Columns_93' XB=19.847,20.147,13.352,13.752,0.011,3.110 SURF_ID='Gypsum wall' /
&OBST ID='Columns_94' XB=19.847,20.147,13.352,13.752,4.410,7.509 SURF_ID='Gypsum wall' /
&OBST ID='Columns_95' XB=-25.146,-24.846,1.354,1.654,0.011,3.110 SURF_ID='Gypsum wall' /
&OBST ID='Columns_96' XB=24.846,25.146,13.352,13.752,0.011,3.110 SURF_ID='Gypsum wall' /
&OBST ID='Columns_97' XB=24.846,25.146,13.352,13.752,4.410,7.509 SURF_ID='Gypsum wall' /
! OBST: XB: 93 voxels, resolution 0.100 m, in 0 s (s:0 1f:0, 2g:0, 3g:0)
&OBST ID='External stairs_0' XB=-34.963,-32.265,6.537,6.636,2.060,2.160 SURF_ID='Gypsum wall' /
&OBST ID='External stairs_1' XB=-35.563,-33.764,2.940,3.239,0.961,1.061 SURF_ID='Gypsum wall' /
&OBST ID='External stairs_2' XB=-33.364,-30.267,0.042,1.041,4.358,4.458 SURF_ID='Gypsum wall' /
&OBST ID='External stairs_3' XB=30.281,33.978,0.042,0.142,4.358,4.458 SURF_ID='Gypsum wall' /
&OBST ID='External stairs_4' XB=-32.665,-30.267,-0.657,-0.557,4.358,4.458 SURF_ID='Gypsum wall' /
&OBST ID='External stairs_5' XB=30.281,33.278,-0.657,-0.557,4.358,4.458 SURF_ID='Gypsum wall' /
&OBST ID='External stairs_6' XB=32.279,34.078,8.035,8.335,0.961,1.061 SURF_ID='Gypsum wall' /
&OBST ID='External stairs_7' XB=-33.364,-31.566,1.841,2.140,3.859,3.958 SURF_ID='Gypsum wall' /
&OBST ID='External stairs_8' XB=32.279,34.078,1.841,2.140,3.859,3.958 SURF_ID='Gypsum wall' /
&OBST ID='External stairs_9' XB=-33.364,-31.566,2.140,2.440,3.659,3.759 SURF_ID='Gypsum wall' /
&OBST ID='External stairs_10' XB=32.279,34.078,2.140,2.440,3.659,3.759 SURF_ID='Gypsum wall' /
&OBST ID='External stairs_11' XB=-35.563,-31.566,5.238,5.937,2.060,2.160 SURF_ID='Gypsum wall' /
&OBST ID='External stairs_12' XB=-35.563,-33.764,4.039,4.338,1.561,1.660 SURF_ID='Gypsum wall' /
&OBST ID='External stairs_13' XB=-33.364,-31.566,4.338,4.638,2.360,2.460 SURF_ID='Gypsum wall' /
&OBST ID='External stairs_14' XB=32.279,34.078,4.338,4.638,2.360,2.460 SURF_ID='Gypsum wall' /
&OBST ID='External stairs_15' XB=32.279,34.078,4.638,5.937,2.260,2.360 SURF_ID='Gypsum wall' /
&OBST ID='External stairs_16' XB=-35.563,-33.764,1.841,2.140,0.362,0.462 SURF_ID='Gypsum wall' /
&OBST ID='External stairs_17' XB=32.279,34.078,8.635,8.934,0.661,0.761 SURF_ID='Gypsum wall' /
&OBST ID='External stairs_18' XB=32.279,34.078,9.834,10.133,-0.038,0.062 SURF_ID='Gypsum wall' /
&OBST ID='External stairs_19' XB=30.281,34.078,0.142,0.941,4.358,4.458 SURF_ID='Gypsum wall' /
&OBST ID='External stairs_20' XB=32.279,34.078,8.934,9.234,0.462,0.561 SURF_ID='Gypsum wall' /
&OBST ID='External stairs_21' XB=-33.364,-31.566,4.039,4.338,2.560,2.660 SURF_ID='Gypsum wall' /
&OBST ID='External stairs_22' XB=32.279,34.078,4.039,4.338,2.560,2.660 SURF_ID='Gypsum wall' /
&OBST ID='External stairs_23' XB=-35.563,-33.764,3.539,3.839,1.261,1.361 SURF_ID='Gypsum wall' /
&OBST ID='External stairs_24' XB=-35.563,-33.764,4.938,5.238,2.060,2.160 SURF_ID='Gypsum wall' /
&OBST ID='External stairs_25' XB=-33.364,-31.566,4.938,5.238,2.060,2.160 SURF_ID='Gypsum wall' /
&OBST ID='External stairs_26' XB=-35.563,-33.764,4.638,4.938,1.960,2.060 SURF_ID='Gypsum wall' /
&OBST ID='External stairs_27' XB=32.279,34.078,6.537,6.836,1.760,1.860 SURF_ID='Gypsum wall' /
&OBST ID='External stairs_28' XB=-33.265,-30.267,-0.058,0.042,4.358,4.458 SURF_ID='Gypsum wall' /
&OBST ID='External stairs_29' XB=30.281,33.878,-0.058,0.042,4.358,4.458 SURF_ID='Gypsum wall' /
&OBST ID='External stairs_30' XB=-35.563,-31.666,5.937,6.037,2.060,2.160 SURF_ID='Gypsum wall' /
&OBST ID='External stairs_31' XB=32.279,34.078,5.937,6.237,2.060,2.160 SURF_ID='Gypsum wall' /
&OBST ID='External stairs_32' XB=-35.563,-33.764,4.338,4.638,1.760,1.860 SURF_ID='Gypsum wall' /
&OBST ID='External stairs_33' XB=-33.364,-31.566,2.640,2.940,3.359,3.459 SURF_ID='Gypsum wall' /
&OBST ID='External stairs_34' XB=32.279,34.078,2.640,2.940,3.359,3.459 SURF_ID='Gypsum wall' /
&OBST ID='External stairs_35' XB=-33.364,-31.566,4.638,4.938,2.260,2.360 SURF_ID='Gypsum wall' /
&OBST ID='External stairs_36' XB=32.279,34.078,7.436,7.736,1.261,1.361 SURF_ID='Gypsum wall' /
&OBST ID='External stairs_37' XB=32.279,34.078,7.136,7.436,1.461,1.561 SURF_ID='Gypsum wall' /
&OBST ID='External stairs_38' XB=-35.363,-31.866,6.137,6.237,2.060,2.160 SURF_ID='Gypsum wall' /
&OBST ID='External stairs_39' XB=-35.563,-33.764,2.640,2.940,0.761,0.861 SURF_ID='Gypsum wall' /
&OBST ID='External stairs_40' XB=-33.364,-31.566,2.340,2.640,3.559,3.659 SURF_ID='Gypsum wall' /
&OBST ID='External stairs_41' XB=32.279,34.078,2.340,2.640,3.559,3.659 SURF_ID='Gypsum wall' /
&OBST ID='External stairs_42' XB=-33.165,-30.267,-0.158,-0.058,4.358,4.458 SURF_ID='Gypsum wall' /
&OBST ID='External stairs_43' XB=30.281,33.778,-0.158,-0.058,4.358,4.458 SURF_ID='Gypsum wall' /
&OBST ID='External stairs_44' XB=-34.563,-32.665,6.936,7.036,2.060,2.160 SURF_ID='Gypsum wall' /
&OBST ID='External stairs_45' XB=-35.563,-33.764,2.140,2.440,0.462,0.561 SURF_ID='Gypsum wall' /
&OBST ID='External stairs_46' XB=-35.563,-33.764,1.541,1.841,0.162,0.262 SURF_ID='Gypsum wall' /
&OBST ID='External stairs_47' XB=-32.465,-30.267,-0.857,-0.757,4.358,4.458 SURF_ID='Gypsum wall' /
&OBST ID='External stairs_48' XB=30.281,33.078,-0.857,-0.757,4.358,4.458 SURF_ID='Gypsum wall' /
&OBST ID='External stairs_49' XB=-33.364,-31.566,1.541,1.841,3.958,4.058 SURF_ID='Gypsum wall' /
&OBST ID='External stairs_50' XB=32.279,34.078,1.541,1.841,3.958,4.058 SURF_ID='Gypsum wall' /
&OBST ID='External stairs_51' XB=-33.364,-31.566,3.539,3.839,2.859,2.959 SURF_ID='Gypsum wall' /
&OBST ID='External stairs_52' XB=32.279,34.078,3.539,3.839,2.859,2.959 SURF_ID='Gypsum wall' /
&OBST ID='External stairs_53' XB=-33.364,-31.566,3.239,3.539,3.059,3.159 SURF_ID='Gypsum wall' /
&OBST ID='External stairs_54' XB=32.279,34.078,3.239,3.539,3.059,3.159 SURF_ID='Gypsum wall' /
&OBST ID='External stairs_55' XB=-34.763,-32.465,6.736,6.836,2.060,2.160 SURF_ID='Gypsum wall' /
&OBST ID='External stairs_56' XB=32.279,34.078,9.234,9.534,0.362,0.462 SURF_ID='Gypsum wall' /
&OBST ID='External stairs_57' XB=-33.065,-30.267,-0.258,-0.158,4.358,4.458 SURF_ID='Gypsum wall' /
&OBST ID='External stairs_58' XB=30.281,33.678,-0.258,-0.158,4.358,4.458 SURF_ID='Gypsum wall' /
&OBST ID='External stairs_59' XB=-33.364,-31.566,1.241,1.541,4.158,4.258 SURF_ID='Gypsum wall' /
&OBST ID='External stairs_60' XB=32.279,34.078,1.241,1.541,4.158,4.258 SURF_ID='Gypsum wall' /
&OBST ID='External stairs_61' XB=-34.663,-32.565,6.836,6.936,2.060,2.160 SURF_ID='Gypsum wall' /
&OBST ID='External stairs_62' XB=-35.563,-33.764,3.239,3.539,1.161,1.261 SURF_ID='Gypsum wall' /
&OBST ID='External stairs_63' XB=32.279,34.078,8.335,8.635,0.761,0.861 SURF_ID='Gypsum wall' /
&OBST ID='External stairs_64' XB=-32.365,-30.267,-0.957,-0.857,4.358,4.458 SURF_ID='Gypsum wall' /
&OBST ID='External stairs_65' XB=30.281,32.978,-0.957,-0.857,4.358,4.458 SURF_ID='Gypsum wall' /
&OBST ID='External stairs_66' XB=-33.364,-31.566,3.739,4.039,2.760,2.859 SURF_ID='Gypsum wall' /
&OBST ID='External stairs_67' XB=32.279,34.078,3.739,4.039,2.760,2.859 SURF_ID='Gypsum wall' /
&OBST ID='External stairs_68' XB=32.279,34.078,6.836,7.136,1.561,1.660 SURF_ID='Gypsum wall' /
&OBST ID='External stairs_69' XB=-32.265,-30.267,-1.057,-0.957,4.358,4.458 SURF_ID='Gypsum wall' /
&OBST ID='External stairs_70' XB=30.281,32.879,-1.057,-0.957,4.358,4.458 SURF_ID='Gypsum wall' /
&OBST ID='External stairs_71' XB=-35.563,-33.764,3.739,4.039,1.461,1.561 SURF_ID='Gypsum wall' /
&OBST ID='External stairs_72' XB=32.279,34.078,6.237,6.537,1.960,2.060 SURF_ID='Gypsum wall' /
&OBST ID='External stairs_73' XB=-32.965,-30.267,-0.358,-0.258,4.358,4.458 SURF_ID='Gypsum wall' /
&OBST ID='External stairs_74' XB=30.281,33.578,-0.358,-0.258,4.358,4.458 SURF_ID='Gypsum wall' /
&OBST ID='External stairs_75' XB=-35.563,-33.764,2.340,2.640,0.661,0.761 SURF_ID='Gypsum wall' /
&OBST ID='External stairs_76' XB=32.279,34.078,9.534,9.834,0.162,0.262 SURF_ID='Gypsum wall' /
&OBST ID='External stairs_77' XB=-32.565,-30.267,-0.757,-0.657,4.358,4.458 SURF_ID='Gypsum wall' /
&OBST ID='External stairs_78' XB=30.281,33.178,-0.757,-0.657,4.358,4.458 SURF_ID='Gypsum wall' /
&OBST ID='External stairs_79' XB=-35.263,-31.966,6.237,6.337,2.060,2.160 SURF_ID='Gypsum wall' /
&OBST ID='External stairs_80' XB=-33.364,-31.566,2.940,3.239,3.159,3.259 SURF_ID='Gypsum wall' /
&OBST ID='External stairs_81' XB=32.279,34.078,2.940,3.239,3.159,3.259 SURF_ID='Gypsum wall' /
&OBST ID='External stairs_82' XB=32.279,34.078,0.941,1.241,4.358,4.458 SURF_ID='Gypsum wall' /
&OBST ID='External stairs_83' XB=-32.865,-30.267,-0.457,-0.358,4.358,4.458 SURF_ID='Gypsum wall' /
&OBST ID='External stairs_84' XB=30.281,33.478,-0.457,-0.358,4.358,4.458 SURF_ID='Gypsum wall' /
&OBST ID='External stairs_85' XB=32.279,34.078,7.736,8.035,1.161,1.261 SURF_ID='Gypsum wall' /
&OBST ID='External stairs_86' XB=-34.863,-32.365,6.636,6.736,2.060,2.160 SURF_ID='Gypsum wall' /
&OBST ID='External stairs_87' XB=-32.765,-30.267,-0.557,-0.457,4.358,4.458 SURF_ID='Gypsum wall' /
&OBST ID='External stairs_88' XB=30.281,33.378,-0.557,-0.457,4.358,4.458 SURF_ID='Gypsum wall' /
&OBST ID='External stairs_89' XB=-35.163,-32.066,6.337,6.437,2.060,2.160 SURF_ID='Gypsum wall' /
&OBST ID='External stairs_90' XB=-35.463,-31.766,6.037,6.137,2.060,2.160 SURF_ID='Gypsum wall' /
&OBST ID='External stairs_91' XB=-35.063,-32.165,6.437,6.537,2.060,2.160 SURF_ID='Gypsum wall' /
&OBST ID='External stairs_92' XB=-33.364,-31.566,1.041,1.241,4.358,4.458 SURF_ID='Gypsum wall' /
! OBST: XB: 99 voxels, resolution 0.100 m, in 1 s (s:0 1f:0, 2g:0, 3g:0)
&OBST ID='Internal stairs_0' XB=-1.945,-0.150,10.834,11.332,3.502,3.602 SURF_ID='Gypsum wall' /
&OBST ID='Internal stairs_1' XB=-1.945,-0.150,12.330,12.829,6.495,6.594 SURF_ID='Gypsum wall' /
&OBST ID='Internal stairs_2' XB=-1.945,-0.150,11.033,11.332,7.293,7.392 SURF_ID='Gypsum wall' /
&OBST ID='Internal stairs_3' XB=-1.945,-0.150,9.736,10.235,4.100,4.200 SURF_ID='Gypsum wall' /
&OBST ID='Internal stairs_4' XB=0.150,1.945,12.230,12.729,1.606,1.706 SURF_ID='Gypsum wall' /
&OBST ID='Internal stairs_5' XB=-2.045,2.045,13.826,15.323,6.295,6.495 SURF_ID='Gypsum wall' /
&OBST ID='Internal stairs_6' XB=-1.945,-0.150,11.133,11.632,3.302,3.402 SURF_ID='Gypsum wall' /
&OBST ID='Internal stairs_7' XB=0.150,1.945,12.230,12.829,5.896,5.996 SURF_ID='Gypsum wall' /
&OBST ID='Internal stairs_8' XB=-1.945,-0.150,12.130,12.529,2.704,2.804 SURF_ID='Gypsum wall' /
&OBST ID='Internal stairs_9' XB=-1.945,-0.150,12.629,13.128,2.405,2.504 SURF_ID='Gypsum wall' /
&OBST ID='Internal stairs_10' XB=-2.045,2.045,13.826,15.323,2.005,2.205 SURF_ID='Gypsum wall' /
&OBST ID='Internal stairs_11' XB=0.150,1.945,11.133,11.632,5.198,5.297 SURF_ID='Gypsum wall' /
&OBST ID='Internal stairs_12' XB=0.150,1.945,11.133,11.632,0.908,1.008 SURF_ID='Gypsum wall' /
&OBST ID='Internal stairs_13' XB=0.150,1.945,11.731,12.130,1.207,1.307 SURF_ID='Gypsum wall' /
&OBST ID='Internal stairs_14' XB=0.150,1.945,10.235,10.734,0.409,0.509 SURF_ID='Gypsum wall' /
&OBST ID='Internal stairs_15' XB=0.150,1.945,9.636,9.936,4.200,4.300 SURF_ID='Gypsum wall' /
&OBST ID='Internal stairs_16' XB=0.150,1.945,12.529,13.128,1.806,1.906 SURF_ID='Gypsum wall' /
&OBST ID='Internal stairs_17' XB=-1.945,-0.150,9.337,9.636,8.290,8.490 SURF_ID='Gypsum wall' /
&OBST ID='Internal stairs_18' XB=-1.945,1.945,7.841,9.636,4.300,4.400 SURF_ID='Gypsum wall' /
&OBST ID='Internal stairs_19' XB=0.150,1.945,11.931,12.529,5.696,5.796 SURF_ID='Gypsum wall' /
&OBST ID='Internal stairs_20' XB=-1.945,1.945,7.841,8.739,4.200,4.300 SURF_ID='Gypsum wall' /
&OBST ID='Internal stairs_21' XB=0.150,1.945,11.731,12.031,5.397,5.497 SURF_ID='Gypsum wall' /
&OBST ID='Internal stairs_22' XB=0.150,1.945,10.534,11.033,0.609,0.709 SURF_ID='Gypsum wall' /
&OBST ID='Internal stairs_23' XB=0.150,1.945,12.829,13.327,1.906,2.005 SURF_ID='Gypsum wall' /
&OBST ID='Internal stairs_24' XB=0.150,1.945,10.834,11.233,0.709,0.808 SURF_ID='Gypsum wall' /
&OBST ID='Internal stairs_25' XB=-1.945,-0.150,13.028,13.427,2.205,2.305 SURF_ID='Gypsum wall' /
&OBST ID='Internal stairs_26' XB=-1.945,-0.150,11.831,12.230,2.903,3.003 SURF_ID='Gypsum wall' /
&OBST ID='Internal stairs_27' XB=-1.945,-0.150,10.135,10.434,3.901,4.001 SURF_ID='Gypsum wall' /
&OBST ID='Internal stairs_28' XB=0.150,1.945,9.936,10.434,4.499,4.599 SURF_ID='Gypsum wall' /
&OBST ID='Internal stairs_29' XB=0.150,1.945,9.936,10.335,4.400,4.499 SURF_ID='Gypsum wall' /
&OBST ID='Internal stairs_30' XB=0.150,1.945,9.636,10.135,4.300,4.400 SURF_ID='Gypsum wall' /
&OBST ID='Internal stairs_31' XB=-1.945,-0.150,12.829,13.427,2.305,2.405 SURF_ID='Gypsum wall' /
&OBST ID='Internal stairs_32' XB=0.150,1.945,12.529,12.928,1.706,1.806 SURF_ID='Gypsum wall' /
&OBST ID='Internal stairs_33' XB=-1.945,-0.150,11.133,11.632,7.193,7.293 SURF_ID='Gypsum wall' /
&OBST ID='Internal stairs_34' XB=-1.945,-0.150,12.330,12.829,2.604,2.704 SURF_ID='Gypsum wall' /
&OBST ID='Internal stairs_35' XB=0.150,1.945,9.636,10.235,0.110,0.210 SURF_ID='Gypsum wall' /
&OBST ID='Internal stairs_36' XB=-1.945,-0.150,10.834,11.332,7.392,7.492 SURF_ID='Gypsum wall' /
&OBST ID='Internal stairs_37' XB=-1.945,-0.150,12.529,12.829,2.504,2.604 SURF_ID='Gypsum wall' /
&OBST ID='Internal stairs_38' XB=0.150,1.945,12.230,12.629,5.796,5.896 SURF_ID='Gypsum wall' /
&OBST ID='Internal stairs_39' XB=-1.945,-0.150,11.831,12.230,6.794,6.894 SURF_ID='Gypsum wall' /
&OBST ID='Internal stairs_40' XB=0.150,1.945,11.432,11.731,1.008,1.108 SURF_ID='Gypsum wall' /
&OBST ID='Internal stairs_41' XB=-1.945,-0.150,12.031,12.529,6.694,6.794 SURF_ID='Gypsum wall' /
&OBST ID='Internal stairs_42' XB=0.150,1.945,10.534,10.933,0.509,0.609 SURF_ID='Gypsum wall' /
&OBST ID='Internal stairs_43' XB=-1.945,-0.150,9.437,9.936,8.190,8.290 SURF_ID='Gypsum wall' /
&OBST ID='Internal stairs_44' XB=-1.945,-0.150,9.636,10.235,8.091,8.190 SURF_ID='Gypsum wall' /
&OBST ID='Internal stairs_45' XB=0.150,1.945,11.432,11.931,1.108,1.207 SURF_ID='Gypsum wall' /
&OBST ID='Internal stairs_46' XB=0.150,1.945,11.133,11.432,0.808,0.908 SURF_ID='Gypsum wall' /
&OBST ID='Internal stairs_47' XB=-1.945,-0.150,11.632,12.230,3.003,3.103 SURF_ID='Gypsum wall' /
&OBST ID='Internal stairs_48' XB=-1.945,-0.150,10.933,11.332,3.402,3.502 SURF_ID='Gypsum wall' /
&OBST ID='Internal stairs_49' XB=-1.945,-0.150,10.534,11.033,7.592,7.692 SURF_ID='Gypsum wall' /
&OBST ID='Internal stairs_50' XB=0.150,1.945,12.529,13.028,5.996,6.095 SURF_ID='Gypsum wall' /
&OBST ID='Internal stairs_51' XB=-1.945,-0.150,12.031,12.529,2.804,2.903 SURF_ID='Gypsum wall' /
&OBST ID='Internal stairs_52' XB=-1.945,1.945,13.128,13.826,2.005,2.205 SURF_ID='Gypsum wall' /
&OBST ID='Internal stairs_53' XB=0.150,1.945,11.133,11.432,5.098,5.198 SURF_ID='Gypsum wall' /
&OBST ID='Internal stairs_54' XB=-1.945,-0.150,11.532,11.931,6.993,7.093 SURF_ID='Gypsum wall' /
&OBST ID='Internal stairs_55' XB=0.150,1.945,11.931,12.330,5.597,5.696 SURF_ID='Gypsum wall' /
&OBST ID='Internal stairs_56' XB=-1.945,1.945,13.128,13.826,6.295,6.495 SURF_ID='Gypsum wall' /
&OBST ID='Internal stairs_57' XB=-1.945,-0.150,10.634,11.033,7.492,7.592 SURF_ID='Gypsum wall' /
&OBST ID='Internal stairs_58' XB=-1.945,-0.150,11.432,11.931,3.103,3.203 SURF_ID='Gypsum wall' /
&OBST ID='Internal stairs_59' XB=-1.945,-0.150,10.335,10.734,7.692,7.791 SURF_ID='Gypsum wall' /
&OBST ID='Internal stairs_60' XB=-1.945,-0.150,9.936,10.434,7.891,7.991 SURF_ID='Gypsum wall' /
&OBST ID='Internal stairs_61' XB=-1.945,-0.150,10.335,10.734,3.801,3.901 SURF_ID='Gypsum wall' /
&OBST ID='Internal stairs_62' XB=-1.945,-1.047,8.739,9.636,4.200,4.300 SURF_ID='Gypsum wall' /
&OBST ID='Internal stairs_63' XB=-0.748,1.945,8.838,8.938,4.200,4.300 SURF_ID='Gypsum wall' /
&OBST ID='Internal stairs_64' XB=-1.945,-0.150,9.636,9.936,4.200,4.400 SURF_ID='Gypsum wall' /
&OBST ID='Internal stairs_65' XB=0.150,1.945,10.834,11.133,4.898,4.998 SURF_ID='Gypsum wall' /
&OBST ID='Internal stairs_66' XB=0.150,1.945,10.834,11.332,4.998,5.098 SURF_ID='Gypsum wall' /
&OBST ID='Internal stairs_67' XB=-1.945,-0.150,12.230,12.529,6.594,6.694 SURF_ID='Gypsum wall' /
&OBST ID='Internal stairs_68' XB=0.150,1.945,9.936,10.434,0.210,0.310 SURF_ID='Gypsum wall' /
&OBST ID='Internal stairs_69' XB=0.150,1.945,11.432,11.831,5.297,5.397 SURF_ID='Gypsum wall' /
&OBST ID='Internal stairs_70' XB=0.150,1.945,11.931,12.430,1.407,1.507 SURF_ID='Gypsum wall' /
&OBST ID='Internal stairs_71' XB=0.150,1.945,10.235,10.534,0.310,0.409 SURF_ID='Gypsum wall' /
&OBST ID='Internal stairs_72' XB=0.150,1.945,9.636,10.035,0.010,0.110 SURF_ID='Gypsum wall' /
&OBST ID='Internal stairs_73' XB=-1.945,-0.150,11.731,12.230,6.894,6.993 SURF_ID='Gypsum wall' /
&OBST ID='Internal stairs_74' XB=-1.945,-0.150,10.634,11.033,3.602,3.701 SURF_ID='Gypsum wall' /
&OBST ID='Internal stairs_75' XB=-1.945,-0.150,9.936,10.434,4.001,4.100 SURF_ID='Gypsum wall' /
&OBST ID='Internal stairs_76' XB=-1.945,-0.150,11.332,11.632,3.203,3.302 SURF_ID='Gypsum wall' /
&OBST ID='Internal stairs_77' XB=0.150,1.945,12.829,13.327,6.195,6.295 SURF_ID='Gypsum wall' /
&OBST ID='Internal stairs_78' XB=0.150,1.945,11.731,12.230,1.307,1.407 SURF_ID='Gypsum wall' /
&OBST ID='Internal stairs_79' XB=-1.945,-0.150,10.135,10.434,7.791,7.891 SURF_ID='Gypsum wall' /
&OBST ID='Internal stairs_80' XB=-1.945,-0.150,9.836,10.235,7.991,8.091 SURF_ID='Gypsum wall' /
&OBST ID='Internal stairs_81' XB=-1.945,-0.150,10.434,10.734,3.701,3.801 SURF_ID='Gypsum wall' /
&OBST ID='Internal stairs_82' XB=0.150,1.945,12.230,12.629,1.507,1.606 SURF_ID='Gypsum wall' /
&OBST ID='Internal stairs_83' XB=0.150,1.945,12.829,13.228,6.095,6.195 SURF_ID='Gypsum wall' /
&OBST ID='Internal stairs_84' XB=0.150,1.945,11.731,12.130,5.497,5.597 SURF_ID='Gypsum wall' /
&OBST ID='Internal stairs_85' XB=-1.945,-0.150,12.729,13.128,6.295,6.395 SURF_ID='Gypsum wall' /
&OBST ID='Internal stairs_86' XB=0.150,1.945,10.235,10.834,4.699,4.799 SURF_ID='Gypsum wall' /
&OBST ID='Internal stairs_87' XB=0.150,1.945,10.235,10.634,4.599,4.699 SURF_ID='Gypsum wall' /
&OBST ID='Internal stairs_88' XB=-0.948,1.945,8.739,8.838,4.200,4.300 SURF_ID='Gypsum wall' /
&OBST ID='Internal stairs_89' XB=-1.945,-0.150,11.332,11.632,7.093,7.193 SURF_ID='Gypsum wall' /
&OBST ID='Internal stairs_90' XB=0.748,1.945,9.537,9.636,4.200,4.300 SURF_ID='Gypsum wall' /
&OBST ID='Internal stairs_91' XB=-0.050,1.945,9.138,9.237,4.200,4.300 SURF_ID='Gypsum wall' /
&OBST ID='Internal stairs_92' XB=-1.945,-0.150,12.529,13.128,6.395,6.495 SURF_ID='Gypsum wall' /
&OBST ID='Internal stairs_93' XB=0.150,1.945,9.237,9.337,4.200,4.300 SURF_ID='Gypsum wall' /
&OBST ID='Internal stairs_94' XB=0.150,1.945,10.534,10.933,4.799,4.898 SURF_ID='Gypsum wall' /
&OBST ID='Internal stairs_95' XB=-0.549,1.945,8.938,9.038,4.200,4.300 SURF_ID='Gypsum wall' /
&OBST ID='Internal stairs_96' XB=0.549,1.945,9.437,9.537,4.200,4.300 SURF_ID='Gypsum wall' /
&OBST ID='Internal stairs_97' XB=0.349,1.945,9.337,9.437,4.200,4.300 SURF_ID='Gypsum wall' /
&OBST ID='Internal stairs_98' XB=-0.249,1.945,9.038,9.138,4.200,4.300 SURF_ID='Gypsum wall' /
! OBST: XB: 8 voxels, resolution 0.100 m, in 0 s (s:0 1f:0, 2g:0, 3g:0)
&OBST ID='Panels transparent_0' XB=-1.133,1.133,1.429,1.527,9.600,12.260 SURF_ID='Glass pane' /
&OBST ID='Panels transparent_1' XB=-1.527,-1.133,1.429,1.527,9.600,12.161 SURF_ID='Glass pane' /
&OBST ID='Panels transparent_2' XB=1.133,1.527,-1.527,-1.429,9.600,12.161 SURF_ID='Glass pane' /
&OBST ID='Panels transparent_3' XB=-1.133,1.133,-1.527,-1.429,9.600,12.260 SURF_ID='Glass pane' /
&OBST ID='Panels transparent_4' XB=-1.527,-1.133,-1.527,-1.429,9.600,12.161 SURF_ID='Glass pane' /
&OBST ID='Panels transparent_5' XB=1.133,1.527,1.429,1.527,9.600,12.161 SURF_ID='Glass pane' /
&OBST ID='Panels transparent_6' XB=-1.527,-1.429,-1.429,1.429,9.600,12.161 SURF_ID='Glass pane' /
&OBST ID='Panels transparent_7' XB=1.429,1.527,-1.429,1.429,9.600,12.161 SURF_ID='Glass pane' /
! OBST: XB: 729 voxels, resolution 0.100 m, in 38 s (s:6 1f:2, 2g:18, 3g:3)
&OBST ID='Walls int ext_0' XB=-28.855,-24.370,1.938,2.038,0.000,3.090 SURF_ID='Gypsum wall' /
&OBST ID='Walls int ext_1' XB=25.466,29.453,13.699,13.799,0.000,1.097 SURF_ID='Gypsum wall' /
&OBST ID='Walls int ext_2' XB=25.466,29.453,13.699,13.799,4.386,5.482 SURF_ID='Gypsum wall' /
&OBST ID='Walls int ext_3' XB=-24.470,-20.483,-13.810,-13.711,0.000,1.097 SURF_ID='Gypsum wall' /