
!!! Generated by BlenderFDS 2.0.0 on Blender 2.63 (sub 17)

! Blender file: /home/egissi/Documenti/20100423 Genova, BlenderFDS/releases/BlenderFDS_2.0.0/examples/uni-build/uni-build.blend
! Date: Mon, 20 Aug 2012 12:05:38

&HEAD CHID='uni-build_s1', TITLE='University building, scenario 1', /

!!! External config file

&TIME T_END=0.0 /

&REAC ID='polyurethane', SOOT_YIELD=0.1875, CO_YIELD=0.02775,
      C=1.0, H=1.75, O=0.25, N=0.065,
      HEAT_OF_COMBUSTION=25300., IDEAL=.TRUE. /
      Gas phase reaction: polyurethane flexible foam (means) from
      Tewarson SFPE Handbook 3rd ed,
      SFPE handbook table 3-4.14, p. 3-112.

&MATL ID='Gypsum plaster', CONDUCTIVITY=0.48,
      SPECIFIC_HEAT=0.84, DENSITY=1440. /
      Thermo-physical properties of gypsum plaster.

&PROP ID='acme smoke detector', QUANTITY='CHAMBER OBSCURATION',
      LENGTH=1.8, ACTIVATION_OBSCURATION=3.28 /
      
&ISOF QUANTITY='TEMPERATURE', VALUE(1)=60. /
&ISOF QUANTITY='VISIBILITY', VALUE(1)=10. /
&BNDF QUANTITY='ADIABATIC SURFACE TEMPERATURE' /

!!! Boundary condition defs

! Burner
&SURF ID='Burner', FYI='1500 kW on 5 m2, fast fire', RGB=204,0,2,
      HRRPUA=300.00, TAU_Q=-230.63, /
! Glass pane
&SURF ID='Glass pane', RGB=0,204,201, TRANSPARENCY=0.200, /
! Gypsum wall
&SURF ID='Gypsum wall', RGB=184,186,136, MATL_ID='Gypsum plaster', THICKNESS=0.03, /

!!! Computational domain

! Domain +1, 1008000 cells, cell size is 0.200 x 0.194 x 0.216, from bounding box, in 0.000 s
&MESH ID='Domain +1', IJK=105,160,60,
      XB=10.500,31.500,-14.817,16.183,0.000,12.968, /
! Domain -1, 1008000 cells, cell size is 0.200 x 0.194 x 0.216, from bounding box, in 0.000 s
&MESH ID='Domain -1', IJK=105,160,60,
      XB=-31.500,-10.500,-14.817,16.183,0.000,12.968, /
! Domain 0, 1008000 cells, cell size is 0.200 x 0.194 x 0.216, from bounding box, in 0.000 s
&MESH ID='Domain 0', IJK=105,160,60,
      XB=-10.500,10.500,-14.817,16.183,0.000,12.968, /

!!! Geometry

! Burner, from bounding box, in 0.000 s
&OBST ID='Burner', FYI='5 m2 on fire', SURF_ID='Burner',
      XB=6.500,7.500,-1.500,-0.500,0.000,1.000, /
! Columns, from voxelization (98 voxels, voxel size is 0.060), in 2.172 s
&OBST ID='Columns_0', SURF_ID='Gypsum wall',
      XB=9.809,10.231,1.353,2.255,4.389,7.091, /
&OBST ID='Columns_1', SURF_ID='Gypsum wall',
      XB=-5.131,-4.829,-13.707,-13.345,4.389,7.511, /
&OBST ID='Columns_2', SURF_ID='Gypsum wall',
      XB=-15.211,-14.789,-2.247,-1.345,4.389,7.091, /
&OBST ID='Columns_3', SURF_ID='Gypsum wall',
      XB=-15.151,-14.849,-13.707,-13.345,4.389,7.511, /
&OBST ID='Columns_4', SURF_ID='Gypsum wall',
      XB=-20.191,-19.769,-2.247,-1.345,4.389,7.091, /
&OBST ID='Columns_5', SURF_ID='Gypsum wall',
      XB=4.829,5.131,-13.707,-13.345,0.009,3.071, /
&OBST ID='Columns_6', SURF_ID='Gypsum wall',
      XB=2.069,2.251,13.413,13.715,4.389,7.511, /
&OBST ID='Columns_7', SURF_ID='Gypsum wall',
      XB=-25.231,-24.809,1.353,2.255,4.389,7.091, /
&OBST ID='Columns_8', SURF_ID='Gypsum wall',
      XB=4.769,5.191,-2.247,-1.345,0.009,2.711, /
&OBST ID='Columns_9', SURF_ID='Gypsum wall',
      XB=9.869,10.171,13.353,13.715,0.009,3.071, /
&OBST ID='Columns_10', SURF_ID='Gypsum wall',
      XB=-2.311,-2.069,13.413,13.715,4.389,7.511, /
&OBST ID='Columns_11', SURF_ID='Gypsum wall',
      XB=14.789,15.211,-2.247,-1.345,0.009,2.711, /
&OBST ID='Columns_12', SURF_ID='Gypsum wall',
      XB=4.769,5.191,1.353,2.255,0.009,2.711, /
&OBST ID='Columns_13', SURF_ID='Gypsum wall',
      XB=29.849,30.151,1.353,1.655,4.389,7.511, /
&OBST ID='Columns_14', SURF_ID='Gypsum wall',
      XB=-5.191,-4.769,-2.247,-1.345,4.389,7.091, /
&OBST ID='Columns_15', SURF_ID='Gypsum wall',
      XB=-25.171,-24.869,-1.647,-1.345,0.009,3.071, /
&OBST ID='Columns_16', SURF_ID='Gypsum wall',
      XB=-30.211,-29.849,13.353,13.715,4.389,7.511, /
&OBST ID='Columns_17', SURF_ID='Gypsum wall',
      XB=-10.231,-9.809,-2.247,-1.345,0.009,2.711, /
&OBST ID='Columns_18', SURF_ID='Gypsum wall',
      XB=14.789,15.211,1.353,2.255,4.389,7.091, /
&OBST ID='Columns_19', SURF_ID='Gypsum wall',
      XB=24.869,25.171,13.353,13.715,4.389,7.511, /
&OBST ID='Columns_20', SURF_ID='Gypsum wall',
      XB=-20.071,-19.769,-13.707,-13.345,0.009,3.071, /
&OBST ID='Columns_21', SURF_ID='Gypsum wall',
      XB=2.069,2.251,13.413,13.715,0.009,3.071, /
&OBST ID='Columns_22', SURF_ID='Gypsum wall',
      XB=-5.131,-4.829,-13.707,-13.345,0.009,3.071, /
&OBST ID='Columns_23', SURF_ID='Gypsum wall',
      XB=-15.211,-14.789,1.353,2.255,4.389,7.091, /
&OBST ID='Columns_24', SURF_ID='Gypsum wall',
      XB=-20.191,-19.769,-2.247,-1.345,0.009,2.711, /
&OBST ID='Columns_25', SURF_ID='Gypsum wall',
      XB=-20.071,-19.769,13.353,13.715,4.389,7.511, /
&OBST ID='Columns_26', SURF_ID='Gypsum wall',
      XB=-5.191,-4.769,1.353,2.255,4.389,7.091, /
&OBST ID='Columns_27', SURF_ID='Gypsum wall',
      XB=-15.151,-14.849,13.353,13.715,0.009,3.071, /
&OBST ID='Columns_28', SURF_ID='Gypsum wall',
      XB=-30.151,-29.849,1.353,1.655,0.009,3.071, /
&OBST ID='Columns_29', SURF_ID='Gypsum wall',
      XB=29.849,30.151,-1.647,-1.345,0.009,3.071, /
&OBST ID='Columns_30', SURF_ID='Gypsum wall',
      XB=-10.231,-9.809,-2.247,-1.345,4.389,7.091, /
&OBST ID='Columns_31', SURF_ID='Gypsum wall',
      XB=-20.191,-19.769,1.353,2.255,0.009,2.711, /
&OBST ID='Columns_32', SURF_ID='Gypsum wall',
      XB=24.809,25.231,1.353,2.255,4.389,7.091, /
&OBST ID='Columns_33', SURF_ID='Gypsum wall',
      XB=14.789,15.211,1.353,2.255,0.009,2.711, /
&OBST ID='Columns_34', SURF_ID='Gypsum wall',
      XB=-10.171,-9.869,-13.707,-13.345,0.009,3.071, /
&OBST ID='Columns_35', SURF_ID='Gypsum wall',
      XB=-25.171,-24.869,-13.707,-13.345,4.389,7.511, /
&OBST ID='Columns_36', SURF_ID='Gypsum wall',
      XB=29.849,30.211,13.353,13.715,4.389,7.511, /
&OBST ID='Columns_37', SURF_ID='Gypsum wall',
      XB=-10.171,-9.869,13.353,13.715,4.389,7.511, /
&OBST ID='Columns_38', SURF_ID='Gypsum wall',
      XB=9.869,10.171,13.353,13.715,4.389,7.511, /
&OBST ID='Columns_39', SURF_ID='Gypsum wall',
      XB=-2.311,-2.069,13.413,13.715,0.009,3.071, /
&OBST ID='Columns_40', SURF_ID='Gypsum wall',
      XB=24.869,25.171,-1.647,-1.345,0.009,3.071, /
&OBST ID='Columns_41', SURF_ID='Gypsum wall',
      XB=4.769,5.191,-2.247,-1.345,4.389,7.091, /
&OBST ID='Columns_42', SURF_ID='Gypsum wall',
      XB=-20.071,-19.769,13.353,13.715,0.009,3.071, /
&OBST ID='Columns_43', SURF_ID='Gypsum wall',
      XB=-5.191,-4.889,13.353,13.715,4.389,7.511, /
&OBST ID='Columns_44', SURF_ID='Gypsum wall',
      XB=-15.151,-14.849,13.353,13.715,4.389,7.511, /
&OBST ID='Columns_45', SURF_ID='Gypsum wall',
      XB=4.889,5.191,13.353,13.715,4.389,7.511, /
&OBST ID='Columns_46', SURF_ID='Gypsum wall',
      XB=19.769,20.131,-2.247,-1.345,4.389,7.091, /
&OBST ID='Columns_47', SURF_ID='Gypsum wall',
      XB=-25.171,-24.869,1.353,1.655,0.009,3.071, /
&OBST ID='Columns_48', SURF_ID='Gypsum wall',
      XB=-10.171,-9.869,-13.707,-13.345,4.389,7.511, /
&OBST ID='Columns_49', SURF_ID='Gypsum wall',
      XB=9.809,10.231,-2.247,-1.345,0.009,2.711, /
&OBST ID='Columns_50', SURF_ID='Gypsum wall',
      XB=-30.211,-29.849,-13.707,-13.345,4.389,7.511, /
&OBST ID='Columns_51', SURF_ID='Gypsum wall',
      XB=-25.171,-24.869,-13.707,-13.345,0.009,3.071, /
&OBST ID='Columns_52', SURF_ID='Gypsum wall',
      XB=19.829,20.131,-13.707,-13.345,0.009,3.071, /
&OBST ID='Columns_53', SURF_ID='Gypsum wall',
      XB=29.849,30.211,13.353,13.715,0.009,3.071, /
&OBST ID='Columns_54', SURF_ID='Gypsum wall',
      XB=9.869,10.171,-13.707,-13.345,0.009,3.071, /
&OBST ID='Columns_55', SURF_ID='Gypsum wall',
      XB=-25.171,-24.869,13.353,13.715,4.389,7.511, /
&OBST ID='Columns_56', SURF_ID='Gypsum wall',
      XB=29.849,30.151,1.353,1.655,0.009,3.071, /
&OBST ID='Columns_57', SURF_ID='Gypsum wall',
      XB=-30.151,-29.849,-1.647,-1.345,0.009,3.071, /
&OBST ID='Columns_58', SURF_ID='Gypsum wall',
      XB=19.769,20.131,1.353,2.255,4.389,7.091, /
&OBST ID='Columns_59', SURF_ID='Gypsum wall',
      XB=29.849,30.211,-13.707,-13.345,0.009,3.071, /
&OBST ID='Columns_60', SURF_ID='Gypsum wall',
      XB=24.869,25.171,-13.707,-13.345,0.009,3.071, /
&OBST ID='Columns_61', SURF_ID='Gypsum wall',
      XB=-20.191,-19.769,1.353,2.255,4.389,7.091, /
&OBST ID='Columns_62', SURF_ID='Gypsum wall',
      XB=-5.191,-4.889,13.353,13.715,0.009,3.071, /
&OBST ID='Columns_63', SURF_ID='Gypsum wall',
      XB=29.849,30.151,-1.647,-1.345,4.389,7.511, /
&OBST ID='Columns_64', SURF_ID='Gypsum wall',
      XB=4.889,5.191,13.353,13.715,0.009,3.071, /
&OBST ID='Columns_65', SURF_ID='Gypsum wall',
      XB=24.869,25.171,1.353,1.655,0.009,3.071, /
&OBST ID='Columns_66', SURF_ID='Gypsum wall',
      XB=14.849,15.151,13.353,13.715,0.009,3.071, /
&OBST ID='Columns_67', SURF_ID='Gypsum wall',
      XB=9.809,10.231,1.353,2.255,0.009,2.711, /
&OBST ID='Columns_68', SURF_ID='Gypsum wall',
      XB=-15.211,-14.789,-2.247,-1.345,0.009,2.711, /
&OBST ID='Columns_69', SURF_ID='Gypsum wall',
      XB=19.829,20.131,13.353,13.715,0.009,3.071, /
&OBST ID='Columns_70', SURF_ID='Gypsum wall',
      XB=19.769,20.131,1.353,2.255,0.009,2.711, /
&OBST ID='Columns_71', SURF_ID='Gypsum wall',
      XB=24.809,25.231,-2.247,-1.345,4.389,7.091, /
&OBST ID='Columns_72', SURF_ID='Gypsum wall',
      XB=19.829,20.131,-13.707,-13.345,4.389,7.511, /
&OBST ID='Columns_73', SURF_ID='Gypsum wall',
      XB=-5.191,-4.769,-2.247,-1.345,0.009,2.711, /
&OBST ID='Columns_74', SURF_ID='Gypsum wall',
      XB=-10.171,-9.869,13.353,13.715,0.009,3.071, /
&OBST ID='Columns_75', SURF_ID='Gypsum wall',
      XB=-10.231,-9.809,1.353,2.255,0.009,2.711, /
&OBST ID='Columns_76', SURF_ID='Gypsum wall',
      XB=-15.211,-14.789,1.353,2.255,0.009,2.711, /
&OBST ID='Columns_77', SURF_ID='Gypsum wall',
      XB=-25.171,-24.869,13.353,13.715,0.009,3.071, /
&OBST ID='Columns_78', SURF_ID='Gypsum wall',
      XB=24.869,25.171,-13.707,-13.345,4.389,7.511, /
&OBST ID='Columns_79', SURF_ID='Gypsum wall',
      XB=14.849,15.151,-13.707,-13.345,0.009,3.071, /
&OBST ID='Columns_80', SURF_ID='Gypsum wall',
      XB=4.829,5.131,-13.707,-13.345,4.389,7.511, /
&OBST ID='Columns_81', SURF_ID='Gypsum wall',
      XB=-10.231,-9.809,1.353,2.255,4.389,7.091, /
&OBST ID='Columns_82', SURF_ID='Gypsum wall',
      XB=14.849,15.151,13.353,13.715,4.389,7.511, /
&OBST ID='Columns_83', SURF_ID='Gypsum wall',
      XB=-30.211,-29.849,-13.707,-13.345,0.009,3.071, /
&OBST ID='Columns_84', SURF_ID='Gypsum wall',
      XB=9.869,10.171,-13.707,-13.345,4.389,7.511, /
&OBST ID='Columns_85', SURF_ID='Gypsum wall',
      XB=-15.151,-14.849,-13.707,-13.345,0.009,3.071, /
&OBST ID='Columns_86', SURF_ID='Gypsum wall',
      XB=19.829,20.131,13.353,13.715,4.389,7.511, /
&OBST ID='Columns_87', SURF_ID='Gypsum wall',
      XB=-5.191,-4.769,1.353,2.255,0.009,2.711, /
&OBST ID='Columns_88', SURF_ID='Gypsum wall',
      XB=29.849,30.211,-13.707,-13.345,4.389,7.511, /
&OBST ID='Columns_89', SURF_ID='Gypsum wall',
      XB=-30.211,-29.849,13.353,13.715,0.009,3.071, /
&OBST ID='Columns_90', SURF_ID='Gypsum wall',
      XB=19.769,20.131,-2.247,-1.345,0.009,2.711, /
&OBST ID='Columns_91', SURF_ID='Gypsum wall',
      XB=9.809,10.231,-2.247,-1.345,4.389,7.091, /
&OBST ID='Columns_92', SURF_ID='Gypsum wall',
      XB=-20.071,-19.769,-13.707,-13.345,4.389,7.511, /
&OBST ID='Columns_93', SURF_ID='Gypsum wall',
      XB=-25.231,-24.809,-2.247,-1.345,4.389,7.091, /
&OBST ID='Columns_94', SURF_ID='Gypsum wall',
      XB=24.869,25.171,13.353,13.715,0.009,3.071, /
&OBST ID='Columns_95', SURF_ID='Gypsum wall',
      XB=14.849,15.151,-13.707,-13.345,4.389,7.511, /
&OBST ID='Columns_96', SURF_ID='Gypsum wall',
      XB=14.789,15.211,-2.247,-1.345,4.389,7.091, /
&OBST ID='Columns_97', SURF_ID='Gypsum wall',
      XB=4.769,5.191,1.353,2.255,4.389,7.091, /
! External BC, from 5 faces, in 0.000 s
&VENT ID='External BC_0', SURF_ID='OPEN', PBX=-31.500, /
&VENT ID='External BC_1', SURF_ID='OPEN', PBX=31.500, /
&VENT ID='External BC_2', SURF_ID='OPEN', PBY=-14.817, /
&VENT ID='External BC_3', SURF_ID='OPEN', PBY=16.183, /
&VENT ID='External BC_4', SURF_ID='OPEN', PBZ=12.968, /
! Fire doors, from voxelization (8 voxels, voxel size is 0.100), in 0.059 s
&OBST ID='Fire doors_0', FYI='always closed', SURF_ID='Gypsum wall',
      XB=-1.051,-0.049,4.423,4.525,-0.041,2.161, /
&OBST ID='Fire doors_1', FYI='always closed', SURF_ID='Gypsum wall',
      XB=0.049,0.951,4.423,4.525,-0.041,2.161, /
&OBST ID='Fire doors_2', FYI='always closed', SURF_ID='Gypsum wall',
      XB=0.049,0.951,7.823,7.925,4.459,6.661, /
&OBST ID='Fire doors_3', FYI='always closed', SURF_ID='Gypsum wall',
      XB=-1.051,-0.049,4.423,4.525,4.459,6.661, /
&OBST ID='Fire doors_4', FYI='always closed', SURF_ID='Gypsum wall',
      XB=0.049,0.951,7.823,7.925,-0.041,2.161, /
&OBST ID='Fire doors_5', FYI='always closed', SURF_ID='Gypsum wall',
      XB=0.049,0.951,4.423,4.525,4.459,6.661, /
&OBST ID='Fire doors_6', FYI='always closed', SURF_ID='Gypsum wall',
      XB=-1.051,-0.049,7.823,7.925,4.459,6.661, /
&OBST ID='Fire doors_7', FYI='always closed', SURF_ID='Gypsum wall',
      XB=-1.051,-0.049,7.823,7.925,-0.041,2.161, /
! Floors, from voxelization (270 voxels, voxel size is 0.100), in 14.560 s
&OBST ID='Floors_0', SURF_ID='Gypsum wall',
      XB=-18.351,-16.649,-2.859,-2.757,7.149,8.451, /
&OBST ID='Floors_1', SURF_ID='Gypsum wall',
      XB=-30.251,-18.649,2.441,2.543,7.549,8.451, /
&OBST ID='Floors_2', SURF_ID='Gypsum wall',
      XB=16.649,18.351,-2.859,-2.757,7.149,8.451, /
&OBST ID='Floors_3', SURF_ID='Gypsum wall',
      XB=1.349,20.151,1.841,1.943,2.649,4.451, /
&OBST ID='Floors_4', SURF_ID='Gypsum wall',
      XB=-30.251,30.251,-13.759,-4.457,7.549,8.451, /
&OBST ID='Floors_5', SURF_ID='Gypsum wall',
      XB=1.949,2.051,11.941,13.343,3.049,4.351, /
&OBST ID='Floors_6', SURF_ID='Gypsum wall',
      XB=-17.251,-3.549,3.341,3.443,7.549,8.451, /
&OBST ID='Floors_7', SURF_ID='Gypsum wall',
      XB=-21.851,-1.749,-1.559,-1.457,2.649,4.451, /
&OBST ID='Floors_8', SURF_ID='Gypsum wall',
      XB=-30.251,-18.149,-3.059,-2.957,7.549,8.451, /
&OBST ID='Floors_9', SURF_ID='Gypsum wall',
      XB=18.449,30.251,2.641,2.743,7.549,8.451, /
&OBST ID='Floors_10', SURF_ID='Gypsum wall',
      XB=1.949,30.251,13.341,13.743,3.049,4.451, /
&OBST ID='Floors_11', SURF_ID='Gypsum wall',
      XB=18.749,30.251,2.341,2.443,7.549,8.451, /
&OBST ID='Floors_12', SURF_ID='Gypsum wall',
      XB=17.149,17.851,3.241,3.343,7.149,8.451, /
&OBST ID='Floors_13', SURF_ID='Gypsum wall',
      XB=2.049,2.151,13.841,14.043,3.049,4.451, /
&OBST ID='Floors_14', SURF_ID='Gypsum wall',
      XB=-2.051,-1.949,11.941,13.343,3.049,4.351, /
&OBST ID='Floors_15', SURF_ID='Gypsum wall',
      XB=-30.251,-17.749,3.341,3.443,7.549,8.451, /
&OBST ID='Floors_16', SURF_ID='Gypsum wall',
      XB=18.649,30.251,-2.559,-2.457,7.549,8.451, /
&OBST ID='Floors_17', SURF_ID='Gypsum wall',
      XB=-17.651,-17.349,3.441,3.543,7.149,8.451, /
&OBST ID='Floors_18', SURF_ID='Gypsum wall',
      XB=-30.251,-2.049,13.741,13.843,3.049,4.451, /
&OBST ID='Floors_19', SURF_ID='Gypsum wall',
      XB=2.049,20.151,1.141,1.243,2.649,4.451, /
&OBST ID='Floors_20', SURF_ID='Gypsum wall',
      XB=-30.251,-17.649,-3.559,-3.457,7.549,8.451, /
&OBST ID='Floors_21', SURF_ID='Gypsum wall',
      XB=-18.051,-16.949,3.041,3.143,7.149,8.451, /
&OBST ID='Floors_22', SURF_ID='Gypsum wall',
      XB=2.049,2.151,13.841,15.243,7.549,8.451, /
&OBST ID='Floors_23', SURF_ID='Gypsum wall',
      XB=-30.251,-30.149,-1.359,1.343,7.549,8.451, /
&OBST ID='Floors_24', SURF_ID='Gypsum wall',
      XB=3.549,16.251,2.341,2.443,7.549,8.451, /
&OBST ID='Floors_25', SURF_ID='Gypsum wall',
      XB=-21.851,-1.349,1.841,1.943,2.649,4.451, /
&OBST ID='Floors_26', SURF_ID='Gypsum wall',
      XB=-30.251,-3.549,2.241,4.443,3.049,4.451, /
&OBST ID='Floors_27', SURF_ID='Gypsum wall',
      XB=-30.251,-1.949,13.341,13.743,3.049,4.451, /
&OBST ID='Floors_28', SURF_ID='Gypsum wall',
      XB=-18.851,-16.149,2.241,2.343,7.149,8.451, /
&OBST ID='Floors_29', SURF_ID='Gypsum wall',
      XB=3.549,30.251,-4.459,-2.257,3.049,4.451, /
&OBST ID='Floors_30', SURF_ID='Gypsum wall',
      XB=18.349,30.251,-2.859,-2.757,7.549,8.451, /
&OBST ID='Floors_31', SURF_ID='Gypsum wall',
      XB=-17.551,-17.449,-3.659,-3.557,7.149,8.451, /
&OBST ID='Floors_32', SURF_ID='Gypsum wall',
      XB=17.849,30.251,-3.359,-3.257,7.549,8.451, /
&OBST ID='Floors_33', SURF_ID='Gypsum wall',
      XB=-21.851,-1.649,1.541,1.643,2.649,4.451, /
&OBST ID='Floors_34', SURF_ID='Gypsum wall',
      XB=-16.451,-3.549,2.541,2.643,7.549,8.451, /
&OBST ID='Floors_35', SURF_ID='Gypsum wall',
      XB=18.049,30.251,-3.159,-3.057,7.549,8.451, /
&OBST ID='Floors_36', SURF_ID='Gypsum wall',
      XB=-21.851,-1.349,-1.959,-1.857,2.649,4.451, /
&OBST ID='Floors_37', SURF_ID='Gypsum wall',
      XB=-2.151,-2.049,14.041,15.043,3.049,3.251, /
&OBST ID='Floors_38', SURF_ID='Gypsum wall',
      XB=3.549,17.251,-3.459,-3.357,7.549,8.451, /
&OBST ID='Floors_39', SURF_ID='Gypsum wall',
      XB=-16.351,-3.849,-2.559,-2.457,7.549,8.451, /
&OBST ID='Floors_40', SURF_ID='Gypsum wall',
      XB=-17.651,-17.349,-3.559,-3.457,7.149,8.451, /
&OBST ID='Floors_41', SURF_ID='Gypsum wall',
      XB=1.149,20.151,-2.159,-2.057,2.649,4.451, /
&OBST ID='Floors_42', SURF_ID='Gypsum wall',
      XB=-17.851,-17.149,-3.359,-3.257,7.149,8.451, /
&OBST ID='Floors_43', SURF_ID='Gypsum wall',
      XB=1.449,20.151,1.741,1.843,2.649,4.451, /
&OBST ID='Floors_44', SURF_ID='Gypsum wall',
      XB=-18.151,-16.849,-3.059,-2.957,7.149,8.451, /
&OBST ID='Floors_45', SURF_ID='Gypsum wall',
      XB=-21.851,-1.449,-1.859,-1.757,2.649,4.451, /
&OBST ID='Floors_46', SURF_ID='Gypsum wall',
      XB=-30.251,-18.549,-2.659,-2.557,7.549,8.451, /
&OBST ID='Floors_47', SURF_ID='Gypsum wall',
      XB=-30.251,-18.049,3.041,3.143,7.549,8.451, /
&OBST ID='Floors_48', SURF_ID='Gypsum wall',
      XB=-29.751,29.751,-2.259,-1.457,7.149,8.451, /
&OBST ID='Floors_49', SURF_ID='Gypsum wall',
      XB=-18.351,-16.649,2.741,2.843,7.149,8.451, /
&OBST ID='Floors_50', SURF_ID='Gypsum wall',
      XB=2.049,30.251,11.941,13.343,3.049,4.451, /
&OBST ID='Floors_51', SURF_ID='Gypsum wall',
      XB=-18.451,-16.549,2.641,2.743,7.149,8.451, /
&OBST ID='Floors_52', SURF_ID='Gypsum wall',
      XB=-29.751,29.751,1.441,2.243,7.149,8.451, /
&OBST ID='Floors_53', SURF_ID='Gypsum wall',
      XB=-30.251,-18.349,2.741,2.843,7.549,8.451, /
&OBST ID='Floors_54', SURF_ID='Gypsum wall',
      XB=17.949,30.251,-3.259,-3.157,7.549,8.451, /
&OBST ID='Floors_55', SURF_ID='Gypsum wall',
      XB=3.549,16.551,2.641,2.743,7.549,8.451, /
&OBST ID='Floors_56', SURF_ID='Gypsum wall',
      XB=-17.851,-17.149,3.241,3.343,7.149,8.451, /
&OBST ID='Floors_57', SURF_ID='Gypsum wall',
      XB=-30.251,30.251,-13.759,-13.657,3.049,4.451, /
&OBST ID='Floors_58', SURF_ID='Gypsum wall',
      XB=-17.451,-3.849,-3.659,-3.557,7.549,8.451, /
&OBST ID='Floors_59', SURF_ID='Gypsum wall',
      XB=17.749,30.251,-3.459,-3.357,7.549,8.451, /
&OBST ID='Floors_60', SURF_ID='Gypsum wall',
      XB=-17.151,-3.549,3.241,3.343,7.549,8.451, /
&OBST ID='Floors_61', SURF_ID='Gypsum wall',
      XB=16.249,18.751,2.341,2.443,7.149,8.451, /
&OBST ID='Floors_62', SURF_ID='Gypsum wall',
      XB=3.549,16.351,-2.559,-2.457,7.549,8.451, /
&OBST ID='Floors_63', SURF_ID='Gypsum wall',
      XB=-16.251,-3.849,-2.459,-2.357,7.549,8.451, /
&OBST ID='Floors_64', SURF_ID='Gypsum wall',
      XB=2.049,30.251,13.741,13.843,3.049,4.451, /
&OBST ID='Floors_65', SURF_ID='Gypsum wall',
      XB=-21.851,-1.549,1.641,1.743,2.649,4.451, /
&OBST ID='Floors_66', SURF_ID='Gypsum wall',
      XB=-30.251,-18.749,-2.459,-2.357,7.549,8.451, /
&OBST ID='Floors_67', SURF_ID='Gypsum wall',
      XB=-3.551,3.551,2.241,4.443,7.149,8.451, /
&OBST ID='Floors_68', SURF_ID='Gypsum wall',
      XB=-17.951,-17.049,-3.259,-3.157,7.149,8.451, /
&OBST ID='Floors_69', SURF_ID='Gypsum wall',
      XB=1.449,20.151,-1.859,-1.757,2.649,4.451, /
&OBST ID='Floors_70', SURF_ID='Gypsum wall',
      XB=3.549,16.851,2.941,3.043,7.549,8.451, /
&OBST ID='Floors_71', SURF_ID='Gypsum wall',
      XB=-16.851,-3.549,2.941,3.043,7.549,8.451, /
&OBST ID='Floors_72', SURF_ID='Gypsum wall',
      XB=-30.251,-18.249,2.841,2.943,7.549,8.451, /
&OBST ID='Floors_73', SURF_ID='Gypsum wall',
      XB=3.549,16.151,-2.359,-2.257,7.549,8.451, /
&OBST ID='Floors_74', SURF_ID='Gypsum wall',
      XB=-21.851,-1.449,1.741,1.843,2.649,4.451, /
&OBST ID='Floors_75', SURF_ID='Gypsum wall',
      XB=16.149,18.851,2.241,2.343,7.149,8.451, /
&OBST ID='Floors_76', SURF_ID='Gypsum wall',
      XB=3.549,17.051,-3.259,-3.157,7.549,8.451, /
&OBST ID='Floors_77', SURF_ID='Gypsum wall',
      XB=3.549,16.951,3.041,3.143,7.549,8.451, /
&OBST ID='Floors_78', SURF_ID='Gypsum wall',
      XB=1.949,20.151,-1.359,-1.257,2.649,4.451, /
&OBST ID='Floors_79', SURF_ID='Gypsum wall',
      XB=18.549,30.251,2.541,2.643,7.549,8.451, /
&OBST ID='Floors_80', SURF_ID='Gypsum wall',
      XB=-21.851,-1.949,-1.359,-1.257,2.649,4.451, /
&OBST ID='Floors_81', SURF_ID='Gypsum wall',
      XB=2.049,2.151,15.041,15.243,3.049,4.451, /
&OBST ID='Floors_82', SURF_ID='Gypsum wall',
      XB=3.549,16.151,2.241,2.343,7.549,8.451, /
&OBST ID='Floors_83', SURF_ID='Gypsum wall',
      XB=-30.251,-29.749,1.341,2.243,7.549,8.451, /
&OBST ID='Floors_84', SURF_ID='Gypsum wall',
      XB=-3.851,3.551,-4.459,-2.257,7.149,8.451, /
&OBST ID='Floors_85', SURF_ID='Gypsum wall',
      XB=-30.251,-18.849,-2.359,-2.257,7.549,8.451, /
&OBST ID='Floors_86', SURF_ID='Gypsum wall',
      XB=-2.151,2.151,15.241,15.343,3.049,4.451, /
&OBST ID='Floors_87', SURF_ID='Gypsum wall',
      XB=-30.251,-17.949,-3.259,-3.157,7.549,8.451, /
&OBST ID='Floors_88', SURF_ID='Gypsum wall',
      XB=3.549,17.251,3.341,3.443,7.549,8.451, /
&OBST ID='Floors_89', SURF_ID='Gypsum wall',
      XB=2.049,20.151,-1.259,-1.157,2.649,4.451, /
&OBST ID='Floors_90', SURF_ID='Gypsum wall',
      XB=-2.151,-2.049,13.841,15.243,7.549,8.451, /
&OBST ID='Floors_91', SURF_ID='Gypsum wall',
      XB=3.549,16.951,-3.159,-3.057,7.549,8.451, /
&OBST ID='Floors_92', SURF_ID='Gypsum wall',
      XB=17.449,17.551,3.541,3.643,7.149,8.451, /
&OBST ID='Floors_93', SURF_ID='Gypsum wall',
      XB=1.249,20.151,1.941,2.043,2.649,4.451, /
&OBST ID='Floors_94', SURF_ID='Gypsum wall',
      XB=-21.851,-2.049,1.141,1.243,2.649,4.451, /
&OBST ID='Floors_95', SURF_ID='Gypsum wall',
      XB=-30.251,-18.649,-2.559,-2.457,7.549,8.451, /
&OBST ID='Floors_96', SURF_ID='Gypsum wall',
      XB=16.949,18.051,3.041,3.143,7.149,8.451, /
&OBST ID='Floors_97', SURF_ID='Gypsum wall',
      XB=-30.251,-17.549,-3.659,-3.557,7.549,8.451, /
&OBST ID='Floors_98', SURF_ID='Gypsum wall',
      XB=16.849,18.151,2.941,3.043,7.149,8.451, /
&OBST ID='Floors_99', SURF_ID='Gypsum wall',
      XB=1.649,20.151,-1.659,-1.557,2.649,4.451, /
&OBST ID='Floors_100', SURF_ID='Gypsum wall',
      XB=-2.151,-2.049,13.841,14.043,3.049,4.451, /
&OBST ID='Floors_101', SURF_ID='Gypsum wall',
      XB=16.249,18.751,-2.459,-2.357,7.149,8.451, /
&OBST ID='Floors_102', SURF_ID='Gypsum wall',
      XB=-21.851,-1.149,2.041,2.143,2.649,4.451, /
&OBST ID='Floors_103', SURF_ID='Gypsum wall',
      XB=-18.051,-16.949,-3.159,-3.057,7.149,8.451, /
&OBST ID='Floors_104', SURF_ID='Gypsum wall',
      XB=17.149,17.851,-3.359,-3.257,7.149,8.451, /
&OBST ID='Floors_105', SURF_ID='Gypsum wall',
      XB=1.549,20.151,-1.759,-1.657,2.649,4.451, /
&OBST ID='Floors_106', SURF_ID='Gypsum wall',
      XB=1.649,20.151,1.541,1.643,2.649,4.451, /
&OBST ID='Floors_107', SURF_ID='Gypsum wall',
      XB=1.849,20.151,1.341,1.443,2.649,4.451, /
&OBST ID='Floors_108', SURF_ID='Gypsum wall',
      XB=16.349,18.651,2.441,2.543,7.149,8.451, /
&OBST ID='Floors_109', SURF_ID='Gypsum wall',
      XB=20.149,30.251,-2.259,2.243,3.049,4.451, /
&OBST ID='Floors_110', SURF_ID='Gypsum wall',
      XB=-21.851,-1.849,1.341,1.443,2.649,4.451, /
&OBST ID='Floors_111', SURF_ID='Gypsum wall',
      XB=3.549,17.151,3.241,3.343,7.549,8.451, /
&OBST ID='Floors_112', SURF_ID='Gypsum wall',
      XB=-17.551,-17.449,3.541,3.643,7.149,8.451, /
&OBST ID='Floors_113', SURF_ID='Gypsum wall',
      XB=-30.251,-3.549,-4.459,-2.257,3.049,4.451, /
&OBST ID='Floors_114', SURF_ID='Gypsum wall',
      XB=-30.251,-1.949,7.841,11.943,3.049,4.451, /
&OBST ID='Floors_115', SURF_ID='Gypsum wall',
      XB=1.949,30.251,9.241,13.743,7.549,8.451, /
&OBST ID='Floors_116', SURF_ID='Gypsum wall',
      XB=16.749,18.251,2.841,2.943,7.149,8.451, /
&OBST ID='Floors_117', SURF_ID='Gypsum wall',
      XB=-30.251,-2.049,13.741,13.843,7.549,8.451, /
&OBST ID='Floors_118', SURF_ID='Gypsum wall',
      XB=18.649,30.251,2.441,2.543,7.549,8.451, /
&OBST ID='Floors_119', SURF_ID='Gypsum wall',
      XB=17.249,17.751,3.341,3.443,7.149,8.451, /
&OBST ID='Floors_120', SURF_ID='Gypsum wall',
      XB=18.849,30.251,-2.359,-2.257,7.549,8.451, /
&OBST ID='Floors_121', SURF_ID='Gypsum wall',
      XB=3.549,17.451,3.541,3.643,7.549,8.451, /
&OBST ID='Floors_122', SURF_ID='Gypsum wall',
      XB=3.549,17.351,-3.559,-3.457,7.549,8.451, /
&OBST ID='Floors_123', SURF_ID='Gypsum wall',
      XB=-30.251,-18.549,2.541,2.643,7.549,8.451, /
&OBST ID='Floors_124', SURF_ID='Gypsum wall',
      XB=-16.651,-3.549,2.741,2.843,7.549,8.451, /
&OBST ID='Floors_125', SURF_ID='Gypsum wall',
      XB=-30.251,-3.849,-4.459,-3.657,7.549,8.451, /
&OBST ID='Floors_126', SURF_ID='Gypsum wall',
      XB=29.749,30.251,-2.259,-1.357,7.549,8.451, /
&OBST ID='Floors_127', SURF_ID='Gypsum wall',
      XB=-30.251,-18.849,2.241,2.343,7.549,8.451, /
&OBST ID='Floors_128', SURF_ID='Gypsum wall',
      XB=-18.551,-16.449,2.541,2.643,7.149,8.451, /
&OBST ID='Floors_129', SURF_ID='Gypsum wall',
      XB=2.049,30.251,13.741,13.843,7.549,8.451, /
&OBST ID='Floors_130', SURF_ID='Gypsum wall',
      XB=-16.151,-3.549,2.241,2.343,7.549,8.451, /
&OBST ID='Floors_131', SURF_ID='Gypsum wall',
      XB=-16.851,-3.849,-3.059,-2.957,7.549,8.451, /
&OBST ID='Floors_132', SURF_ID='Gypsum wall',
      XB=16.749,18.251,-2.959,-2.857,7.149,8.451, /
&OBST ID='Floors_133', SURF_ID='Gypsum wall',
      XB=-16.551,-3.549,2.641,2.743,7.549,8.451, /
&OBST ID='Floors_134', SURF_ID='Gypsum wall',
      XB=16.549,18.451,2.641,2.743,7.149,8.451, /
&OBST ID='Floors_135', SURF_ID='Gypsum wall',
      XB=-2.151,-2.049,15.041,15.243,3.049,4.451, /
&OBST ID='Floors_136', SURF_ID='Gypsum wall',
      XB=-18.851,-16.149,-2.359,-2.257,7.149,8.451, /
&OBST ID='Floors_137', SURF_ID='Gypsum wall',
      XB=1.349,30.251,-13.659,-4.457,3.049,4.451, /
&OBST ID='Floors_138', SURF_ID='Gypsum wall',
      XB=17.649,30.251,-3.559,-3.457,7.549,8.451, /
&OBST ID='Floors_139', SURF_ID='Gypsum wall',
      XB=16.549,18.451,-2.759,-2.657,7.149,8.451, /
&OBST ID='Floors_140', SURF_ID='Gypsum wall',
      XB=-21.851,-1.549,-1.759,-1.657,2.649,4.451, /
&OBST ID='Floors_141', SURF_ID='Gypsum wall',
      XB=29.749,30.151,-1.359,1.343,7.449,8.451, /
&OBST ID='Floors_142', SURF_ID='Gypsum wall',
      XB=17.249,17.751,-3.459,-3.357,7.149,8.451, /
&OBST ID='Floors_143', SURF_ID='Gypsum wall',
      XB=17.049,17.951,3.141,3.243,7.149,8.451, /
&OBST ID='Floors_144', SURF_ID='Gypsum wall',
      XB=3.549,16.751,-2.959,-2.857,7.549,8.451, /
&OBST ID='Floors_145', SURF_ID='Gypsum wall',
      XB=16.449,18.551,2.541,2.643,7.149,8.451, /
&OBST ID='Floors_146', SURF_ID='Gypsum wall',
      XB=-30.251,30.251,4.441,9.243,7.549,8.451, /
&OBST ID='Floors_147', SURF_ID='Gypsum wall',
      XB=-1.351,1.351,-13.659,-4.457,2.649,4.451, /
&OBST ID='Floors_148', SURF_ID='Gypsum wall',
      XB=30.149,30.251,-1.359,1.343,7.549,8.451, /
&OBST ID='Floors_149', SURF_ID='Gypsum wall',
      XB=-16.351,-3.549,2.441,2.543,7.549,8.451, /
&OBST ID='Floors_150', SURF_ID='Gypsum wall',
      XB=-21.851,-1.149,-2.159,-2.057,2.649,4.451, /
&OBST ID='Floors_151', SURF_ID='Gypsum wall',
      XB=-30.251,-18.449,-2.759,-2.657,7.549,8.451, /
&OBST ID='Floors_152', SURF_ID='Gypsum wall',
      XB=-21.851,-2.049,-1.259,-1.157,2.649,4.451, /
&OBST ID='Floors_153', SURF_ID='Gypsum wall',
      XB=-30.251,-17.949,3.141,3.243,7.549,8.451, /
&OBST ID='Floors_154', SURF_ID='Gypsum wall',
      XB=3.549,16.451,-2.659,-2.557,7.549,8.451, /
&OBST ID='Floors_155', SURF_ID='Gypsum wall',
      XB=-17.751,-17.249,3.341,3.443,7.149,8.451, /
&OBST ID='Floors_156', SURF_ID='Gypsum wall',
      XB=16.949,18.051,-3.159,-3.057,7.149,8.451, /
&OBST ID='Floors_157', SURF_ID='Gypsum wall',
      XB=-16.751,-3.549,2.841,2.943,7.549,8.451, /
&OBST ID='Floors_158', SURF_ID='Gypsum wall',
      XB=2.149,20.151,-1.159,1.143,2.649,4.451, /
&OBST ID='Floors_159', SURF_ID='Gypsum wall',
      XB=17.549,30.251,3.541,3.643,7.549,8.451, /
&OBST ID='Floors_160', SURF_ID='Gypsum wall',
      XB=18.549,30.251,-2.659,-2.557,7.549,8.451, /
&OBST ID='Floors_161', SURF_ID='Gypsum wall',
      XB=-17.051,-3.849,-3.259,-3.157,7.549,8.451, /
&OBST ID='Floors_162', SURF_ID='Gypsum wall',
      XB=-21.851,-1.249,1.941,2.043,2.649,4.451, /
&OBST ID='Floors_163', SURF_ID='Gypsum wall',
      XB=-17.351,-3.549,3.441,3.543,7.549,8.451, /
&OBST ID='Floors_164', SURF_ID='Gypsum wall',
      XB=-30.251,-2.049,11.941,13.343,3.049,4.451, /
&OBST ID='Floors_165', SURF_ID='Gypsum wall',
      XB=-17.751,-17.249,-3.459,-3.357,7.149,8.451, /
&OBST ID='Floors_166', SURF_ID='Gypsum wall',
      XB=-30.251,-18.749,2.341,2.443,7.549,8.451, /
&OBST ID='Floors_167', SURF_ID='Gypsum wall',
      XB=16.849,18.151,-3.059,-2.957,7.149,8.451, /
&OBST ID='Floors_168', SURF_ID='Gypsum wall',
      XB=-17.351,-3.849,-3.559,-3.457,7.549,8.451, /
&OBST ID='Floors_169', SURF_ID='Gypsum wall',
      XB=-30.251,-17.549,3.541,3.643,7.549,8.451, /
&OBST ID='Floors_170', SURF_ID='Gypsum wall',
      XB=-16.951,-3.849,-3.159,-3.057,7.549,8.451, /
&OBST ID='Floors_171', SURF_ID='Gypsum wall',
      XB=3.549,17.151,-3.359,-3.257,7.549,8.451, /
&OBST ID='Floors_172', SURF_ID='Gypsum wall',
      XB=-29.751,-1.449,-1.459,1.443,7.149,8.451, /