
!!! Generated by BlenderFDS 1.2.0 on Blender 2.62 (sub 0)

! Sat, 07 Apr 2012 09:06:00
! Voxel Size: 0.125, 0.124, 0.120

&HEAD CHID='uni-build-s1', TITLE='University building, scenario 1', /

!!! External config file

&TIME T_END=0.0 /

&REAC ID='polyurethane', SOOT_YIELD=0.1875, CO_YIELD=0.02775,
      C=1.0, H=1.75, O=0.25, N=0.065,
      HEAT_OF_COMBUSTION=25300., IDEAL=.TRUE. /
      Gas phase reaction: polyurethane flexible foam (means) from
      Tewarson SFPE Handbook 3rd ed,
      SFPE handbook table 3-4.14, p. 3-112.

&MATL ID='Gypsum plaster', CONDUCTIVITY=0.48,
      SPECIFIC_HEAT=0.84, DENSITY=1440. /
      Thermo-physical properties of gypsum plaster.

&PROP ID='acme smoke detector', QUANTITY='CHAMBER OBSCURATION',
      LENGTH=1.8, ACTIVATION_OBSCURATION=3.28 /
      
&ISOF QUANTITY='TEMPERATURE', VALUE(1)=60. /
&ISOF QUANTITY='VISIBILITY', VALUE(1)=10. /
&BNDF QUANTITY='ADIABATIC SURFACE TEMPERATURE' /

!!! Boundary condition defs

&SURF ID='Burner', FYI='1500 kW on 5 m2, fast fire', RGB=204,0,2, HRRPUA=300.00, TAU_Q=-230.63, /
&SURF ID='Glass pane', RGB=0,204,201, TRANSPARENCY=0.200, /
&SURF ID='Gypsum wall', RGB=184,186,136, MATL_ID='Gypsum plaster', THICKNESS=0.03, /

!!! Computational domain

! 567000 cells, size: 0.250, 0.248, 0.240 m
&MESH ID='Domain +1', IJK=84,125,54, XB=10.500,31.500,-14.817,16.183,0.000,12.968, /
! 567000 cells, size: 0.250, 0.248, 0.240 m
&MESH ID='Domain -1', IJK=84,125,54, XB=-31.500,-10.500,-14.817,16.183,0.000,12.968, /
! 567000 cells, size: 0.250, 0.248, 0.240 m
&MESH ID='Domain 0', IJK=84,125,54, XB=-10.500,10.500,-14.817,16.183,0.000,12.968, /

!!! Geometry

&OBST ID='Burning object', FYI='5 m2 on fire', SURF_ID='Burner',
      XB=6.500,7.500,-1.500,-0.500,0.000,1.000, /
! Columns
&OBST ID='Columns', SURF_ID='Gypsum wall', XB=-30.312,-29.812,-13.702,-13.330,-0.060,3.182, /
&OBST ID='Columns', SURF_ID='Gypsum wall', XB=-30.312,-29.812,-13.702,-13.330,4.383,7.625, /
&OBST ID='Columns', SURF_ID='Gypsum wall', XB=-30.312,-29.812,13.330,13.826,-0.060,3.182, /
&OBST ID='Columns', SURF_ID='Gypsum wall', XB=-30.312,-29.812,13.330,13.826,4.383,7.625, /
&OBST ID='Columns', SURF_ID='Gypsum wall', XB=-30.188,-29.812,-1.674,-1.302,-0.060,3.182, /
&OBST ID='Columns', SURF_ID='Gypsum wall', XB=-30.188,-29.812,1.302,1.674,-0.060,3.182, /
&OBST ID='Columns', SURF_ID='Gypsum wall', XB=-25.312,-24.688,-2.294,-1.302,4.383,7.144, /
&OBST ID='Columns', SURF_ID='Gypsum wall', XB=-25.312,-24.688,1.302,2.294,4.383,7.144, /
&OBST ID='Columns', SURF_ID='Gypsum wall', XB=-25.188,-24.812,-13.702,-13.330,-0.060,3.182, /
&OBST ID='Columns', SURF_ID='Gypsum wall', XB=-25.188,-24.812,-13.702,-13.330,4.383,7.625, /
&OBST ID='Columns', SURF_ID='Gypsum wall', XB=-25.188,-24.812,-1.674,-1.302,-0.060,3.182, /
&OBST ID='Columns', SURF_ID='Gypsum wall', XB=-25.188,-24.812,1.302,1.674,-0.060,3.182, /
&OBST ID='Columns', SURF_ID='Gypsum wall', XB=-25.188,-24.812,13.330,13.826,-0.060,3.182, /
&OBST ID='Columns', SURF_ID='Gypsum wall', XB=-25.188,-24.812,13.330,13.826,4.383,7.625, /
&OBST ID='Columns', SURF_ID='Gypsum wall', XB=-20.312,-19.688,-2.294,-1.302,-0.060,2.702, /
&OBST ID='Columns', SURF_ID='Gypsum wall', XB=-20.312,-19.688,-2.294,-1.302,4.383,7.144, /
&OBST ID='Columns', SURF_ID='Gypsum wall', XB=-20.312,-19.688,1.302,2.294,-0.060,2.702, /
&OBST ID='Columns', SURF_ID='Gypsum wall', XB=-20.312,-19.688,1.302,2.294,4.383,7.144, /
&OBST ID='Columns', SURF_ID='Gypsum wall', XB=-20.188,-19.688,-13.702,-13.206,-0.060,3.182, /
&OBST ID='Columns', SURF_ID='Gypsum wall', XB=-20.188,-19.688,-13.702,-13.206,4.383,7.625, /
&OBST ID='Columns', SURF_ID='Gypsum wall', XB=-20.188,-19.688,13.330,13.826,-0.060,3.182, /
&OBST ID='Columns', SURF_ID='Gypsum wall', XB=-20.188,-19.688,13.330,13.826,4.383,7.625, /
&OBST ID='Columns', SURF_ID='Gypsum wall', XB=-15.312,-14.688,-2.294,-1.302,-0.060,2.702, /
&OBST ID='Columns', SURF_ID='Gypsum wall', XB=-15.312,-14.688,-2.294,-1.302,4.383,7.144, /
&OBST ID='Columns', SURF_ID='Gypsum wall', XB=-15.312,-14.688,1.302,2.294,-0.060,2.702, /
&OBST ID='Columns', SURF_ID='Gypsum wall', XB=-15.312,-14.688,1.302,2.294,4.383,7.144, /
&OBST ID='Columns', SURF_ID='Gypsum wall', XB=-15.188,-14.812,-13.702,-13.330,-0.060,3.182, /
&OBST ID='Columns', SURF_ID='Gypsum wall', XB=-15.188,-14.812,-13.702,-13.330,4.383,7.625, /
&OBST ID='Columns', SURF_ID='Gypsum wall', XB=-15.188,-14.812,13.330,13.826,-0.060,3.182, /
&OBST ID='Columns', SURF_ID='Gypsum wall', XB=-15.188,-14.812,13.330,13.826,4.383,7.625, /
&OBST ID='Columns', SURF_ID='Gypsum wall', XB=-10.312,-9.688,-2.294,-1.302,-0.060,2.702, /
&OBST ID='Columns', SURF_ID='Gypsum wall', XB=-10.312,-9.688,-2.294,-1.302,4.383,7.144, /
&OBST ID='Columns', SURF_ID='Gypsum wall', XB=-10.312,-9.688,1.302,2.294,-0.060,2.702, /
&OBST ID='Columns', SURF_ID='Gypsum wall', XB=-10.312,-9.688,1.302,2.294,4.383,7.144, /
&OBST ID='Columns', SURF_ID='Gypsum wall', XB=-10.188,-9.812,-13.702,-13.330,-0.060,3.182, /
&OBST ID='Columns', SURF_ID='Gypsum wall', XB=-10.188,-9.812,-13.702,-13.330,4.383,7.625, /
&OBST ID='Columns', SURF_ID='Gypsum wall', XB=-10.188,-9.812,13.330,13.826,-0.060,3.182, /
&OBST ID='Columns', SURF_ID='Gypsum wall', XB=-10.188,-9.812,13.330,13.826,4.383,7.625, /
&OBST ID='Columns', SURF_ID='Gypsum wall', XB=-5.312,-4.812,13.330,13.826,-0.060,3.182, /
&OBST ID='Columns', SURF_ID='Gypsum wall', XB=-5.312,-4.812,13.330,13.826,4.383,7.625, /
&OBST ID='Columns', SURF_ID='Gypsum wall', XB=-5.312,-4.688,-2.294,-1.302,-0.060,2.702, /
&OBST ID='Columns', SURF_ID='Gypsum wall', XB=-5.312,-4.688,-2.294,-1.302,4.383,7.144, /
&OBST ID='Columns', SURF_ID='Gypsum wall', XB=-5.312,-4.688,1.302,2.294,-0.060,2.702, /
&OBST ID='Columns', SURF_ID='Gypsum wall', XB=-5.312,-4.688,1.302,2.294,4.383,7.144, /
&OBST ID='Columns', SURF_ID='Gypsum wall', XB=-5.188,-4.812,-13.702,-13.330,-0.060,3.182, /
&OBST ID='Columns', SURF_ID='Gypsum wall', XB=-5.188,-4.812,-13.702,-13.330,4.383,7.625, /
&OBST ID='Columns', SURF_ID='Gypsum wall', XB=-2.312,-1.938,13.330,13.826,-0.060,3.182, /
&OBST ID='Columns', SURF_ID='Gypsum wall', XB=-2.312,-1.938,13.330,13.826,4.383,7.625, /
&OBST ID='Columns', SURF_ID='Gypsum wall', XB=1.938,2.312,13.330,13.826,-0.060,3.182, /
&OBST ID='Columns', SURF_ID='Gypsum wall', XB=1.938,2.312,13.330,13.826,4.383,7.625, /
&OBST ID='Columns', SURF_ID='Gypsum wall', XB=4.688,5.312,-2.294,-1.302,-0.060,2.702, /
&OBST ID='Columns', SURF_ID='Gypsum wall', XB=4.688,5.312,-2.294,-1.302,4.383,7.144, /
&OBST ID='Columns', SURF_ID='Gypsum wall', XB=4.688,5.312,1.302,2.294,-0.060,2.702, /
&OBST ID='Columns', SURF_ID='Gypsum wall', XB=4.688,5.312,1.302,2.294,4.383,7.144, /
&OBST ID='Columns', SURF_ID='Gypsum wall', XB=4.812,5.188,-13.702,-13.330,-0.060,3.182, /
&OBST ID='Columns', SURF_ID='Gypsum wall', XB=4.812,5.188,-13.702,-13.330,4.383,7.625, /
&OBST ID='Columns', SURF_ID='Gypsum wall', XB=4.812,5.312,13.330,13.826,-0.060,3.182, /
&OBST ID='Columns', SURF_ID='Gypsum wall', XB=4.812,5.312,13.330,13.826,4.383,7.625, /
&OBST ID='Columns', SURF_ID='Gypsum wall', XB=9.688,10.312,-2.294,-1.302,-0.060,2.702, /
&OBST ID='Columns', SURF_ID='Gypsum wall', XB=9.688,10.312,-2.294,-1.302,4.383,7.144, /
&OBST ID='Columns', SURF_ID='Gypsum wall', XB=9.688,10.312,1.302,2.294,-0.060,2.702, /
&OBST ID='Columns', SURF_ID='Gypsum wall', XB=9.688,10.312,1.302,2.294,4.383,7.144, /
&OBST ID='Columns', SURF_ID='Gypsum wall', XB=9.812,10.188,-13.702,-13.330,-0.060,3.182, /
&OBST ID='Columns', SURF_ID='Gypsum wall', XB=9.812,10.188,-13.702,-13.330,4.383,7.625, /
&OBST ID='Columns', SURF_ID='Gypsum wall', XB=9.812,10.188,13.330,13.826,-0.060,3.182, /
&OBST ID='Columns', SURF_ID='Gypsum wall', XB=9.812,10.188,13.330,13.826,4.383,7.625, /
&OBST ID='Columns', SURF_ID='Gypsum wall', XB=14.688,15.312,-2.294,-1.302,-0.060,2.702, /
&OBST ID='Columns', SURF_ID='Gypsum wall', XB=14.688,15.312,-2.294,-1.302,4.383,7.144, /
&OBST ID='Columns', SURF_ID='Gypsum wall', XB=14.688,15.312,1.302,2.294,-0.060,2.702, /
&OBST ID='Columns', SURF_ID='Gypsum wall', XB=14.688,15.312,1.302,2.294,4.383,7.144, /
&OBST ID='Columns', SURF_ID='Gypsum wall', XB=14.812,15.188,-13.702,-13.330,-0.060,3.182, /
&OBST ID='Columns', SURF_ID='Gypsum wall', XB=14.812,15.188,-13.702,-13.330,4.383,7.625, /
&OBST ID='Columns', SURF_ID='Gypsum wall', XB=14.812,15.188,13.330,13.826,-0.060,3.182, /
&OBST ID='Columns', SURF_ID='Gypsum wall', XB=14.812,15.188,13.330,13.826,4.383,7.625, /
&OBST ID='Columns', SURF_ID='Gypsum wall', XB=19.688,20.188,-2.294,-1.302,-0.060,2.702, /
&OBST ID='Columns', SURF_ID='Gypsum wall', XB=19.688,20.188,-2.294,-1.302,4.383,7.144, /
&OBST ID='Columns', SURF_ID='Gypsum wall', XB=19.688,20.188,1.302,2.294,-0.060,2.702, /
&OBST ID='Columns', SURF_ID='Gypsum wall', XB=19.688,20.188,1.302,2.294,4.383,7.144, /
&OBST ID='Columns', SURF_ID='Gypsum wall', XB=19.812,20.188,-13.702,-13.206,-0.060,3.182, /
&OBST ID='Columns', SURF_ID='Gypsum wall', XB=19.812,20.188,-13.702,-13.206,4.383,7.625, /
&OBST ID='Columns', SURF_ID='Gypsum wall', XB=19.812,20.188,13.330,13.826,-0.060,3.182, /
&OBST ID='Columns', SURF_ID='Gypsum wall', XB=19.812,20.188,13.330,13.826,4.383,7.625, /
&OBST ID='Columns', SURF_ID='Gypsum wall', XB=24.688,25.312,-2.294,-1.302,4.383,7.144, /
&OBST ID='Columns', SURF_ID='Gypsum wall', XB=24.688,25.312,1.302,2.294,4.383,7.144, /
&OBST ID='Columns', SURF_ID='Gypsum wall', XB=24.812,25.188,-13.702,-13.330,-0.060,3.182, /
&OBST ID='Columns', SURF_ID='Gypsum wall', XB=24.812,25.188,-13.702,-13.330,4.383,7.625, /
&OBST ID='Columns', SURF_ID='Gypsum wall', XB=24.812,25.188,-1.674,-1.302,-0.060,3.182, /
&OBST ID='Columns', SURF_ID='Gypsum wall', XB=24.812,25.188,1.302,1.674,-0.060,3.182, /
&OBST ID='Columns', SURF_ID='Gypsum wall', XB=24.812,25.188,13.330,13.826,-0.060,3.182, /
&OBST ID='Columns', SURF_ID='Gypsum wall', XB=24.812,25.188,13.330,13.826,4.383,7.625, /
&OBST ID='Columns', SURF_ID='Gypsum wall', XB=29.812,30.188,-1.674,-1.302,-0.060,3.182, /
&OBST ID='Columns', SURF_ID='Gypsum wall', XB=29.812,30.188,-1.674,-1.302,4.383,7.625, /
&OBST ID='Columns', SURF_ID='Gypsum wall', XB=29.812,30.188,1.302,1.674,-0.060,3.182, /
&OBST ID='Columns', SURF_ID='Gypsum wall', XB=29.812,30.188,1.302,1.674,4.383,7.625, /
&OBST ID='Columns', SURF_ID='Gypsum wall', XB=29.812,30.312,-13.702,-13.330,-0.060,3.182, /
&OBST ID='Columns', SURF_ID='Gypsum wall', XB=29.812,30.312,-13.702,-13.330,4.383,7.625, /
&OBST ID='Columns', SURF_ID='Gypsum wall', XB=29.812,30.312,13.330,13.826,-0.060,3.182, /
&OBST ID='Columns', SURF_ID='Gypsum wall', XB=29.812,30.312,13.330,13.826,4.383,7.625, /
! External BC
&VENT ID='External BC', SURF_ID='OPEN', PBZ=12.968, /
&VENT ID='External BC', SURF_ID='OPEN', PBY=-14.817, /
&VENT ID='External BC', SURF_ID='OPEN', PBX=-31.500, /
&VENT ID='External BC', SURF_ID='OPEN', PBY=16.183, /
&VENT ID='External BC', SURF_ID='OPEN', PBX=31.500, /
! External stairs
&OBST ID='External stairs', SURF_ID='Gypsum wall', XB=-35.562,-33.688,1.426,1.922,0.060,0.300, /
&OBST ID='External stairs', SURF_ID='Gypsum wall', XB=-35.562,-33.688,1.798,2.170,0.300,0.420, /
&OBST ID='External stairs', SURF_ID='Gypsum wall', XB=-35.562,-33.688,2.046,2.294,0.420,0.660, /
&OBST ID='External stairs', SURF_ID='Gypsum wall', XB=-35.562,-33.688,2.294,2.418,0.420,0.540, /
&OBST ID='External stairs', SURF_ID='Gypsum wall', XB=-35.562,-33.688,2.294,2.790,0.540,0.780, /
&OBST ID='External stairs', SURF_ID='Gypsum wall', XB=-35.562,-33.688,2.542,3.038,0.780,0.901, /
&OBST ID='External stairs', SURF_ID='Gypsum wall', XB=-35.562,-33.688,2.914,3.162,0.901,1.141, /
&OBST ID='External stairs', SURF_ID='Gypsum wall', XB=-35.562,-33.688,3.162,3.286,0.901,1.021, /
&OBST ID='External stairs', SURF_ID='Gypsum wall', XB=-35.562,-33.688,3.162,3.534,1.021,1.261, /
&OBST ID='External stairs', SURF_ID='Gypsum wall', XB=-35.562,-33.688,3.410,3.906,1.261,1.381, /
&OBST ID='External stairs', SURF_ID='Gypsum wall', XB=-35.562,-33.688,3.782,4.030,1.381,1.621, /
&OBST ID='External stairs', SURF_ID='Gypsum wall', XB=-35.562,-33.688,4.030,4.154,1.381,1.501, /
&OBST ID='External stairs', SURF_ID='Gypsum wall', XB=-35.562,-33.688,4.030,4.402,1.501,1.741, /
&OBST ID='External stairs', SURF_ID='Gypsum wall', XB=-35.562,-33.688,4.278,4.650,1.741,1.861, /
&OBST ID='External stairs', SURF_ID='Gypsum wall', XB=-35.562,-33.688,4.526,5.022,1.861,1.981, /
&OBST ID='External stairs', SURF_ID='Gypsum wall', XB=-35.562,-33.688,4.526,5.146,1.981,2.101, /
&OBST ID='External stairs', SURF_ID='Gypsum wall', XB=-35.562,-33.688,4.898,5.146,2.101,2.221, /
&OBST ID='External stairs', SURF_ID='Gypsum wall', XB=-35.562,-31.562,5.146,6.138,1.981,2.221, /
&OBST ID='External stairs', SURF_ID='Gypsum wall', XB=-35.438,-31.688,6.138,6.262,1.981,2.221, /
&OBST ID='External stairs', SURF_ID='Gypsum wall', XB=-35.312,-35.188,6.262,6.386,1.981,2.221, /
&OBST ID='External stairs', SURF_ID='Gypsum wall', XB=-35.188,-35.062,6.262,6.510,1.981,2.221, /
&OBST ID='External stairs', SURF_ID='Gypsum wall', XB=-35.062,-32.062,6.262,6.634,1.981,2.221, /
&OBST ID='External stairs', SURF_ID='Gypsum wall', XB=-34.938,-34.688,6.634,6.758,1.981,2.221, /
&OBST ID='External stairs', SURF_ID='Gypsum wall', XB=-34.812,-34.688,6.758,6.882,1.981,2.221, /
&OBST ID='External stairs', SURF_ID='Gypsum wall', XB=-34.688,-32.438,6.634,7.006,1.981,2.221, /
&OBST ID='External stairs', SURF_ID='Gypsum wall', XB=-33.438,-31.562,1.054,1.302,4.263,4.503, /
&OBST ID='External stairs', SURF_ID='Gypsum wall', XB=-33.438,-31.562,1.178,1.674,4.142,4.263, /
&OBST ID='External stairs', SURF_ID='Gypsum wall', XB=-33.438,-31.562,1.426,1.922,3.902,4.142, /
&OBST ID='External stairs', SURF_ID='Gypsum wall', XB=-33.438,-31.562,1.798,2.170,3.782,3.902, /
&OBST ID='External stairs', SURF_ID='Gypsum wall', XB=-33.438,-31.562,1.922,2.170,3.902,4.022, /
&OBST ID='External stairs', SURF_ID='Gypsum wall', XB=-33.438,-31.562,2.046,2.418,3.662,3.782, /
&OBST ID='External stairs', SURF_ID='Gypsum wall', XB=-33.438,-31.562,2.294,2.790,3.542,3.662, /
&OBST ID='External stairs', SURF_ID='Gypsum wall', XB=-33.438,-31.562,2.294,3.038,3.422,3.542, /
&OBST ID='External stairs', SURF_ID='Gypsum wall', XB=-33.438,-31.562,2.542,3.038,3.302,3.422, /
&OBST ID='External stairs', SURF_ID='Gypsum wall', XB=-33.438,-31.562,2.914,3.286,3.182,3.302, /
&OBST ID='External stairs', SURF_ID='Gypsum wall', XB=-33.438,-31.562,3.162,3.534,2.942,3.182, /
&OBST ID='External stairs', SURF_ID='Gypsum wall', XB=-33.438,-31.562,3.410,3.906,2.822,2.942, /
&OBST ID='External stairs', SURF_ID='Gypsum wall', XB=-33.438,-31.562,3.534,3.906,2.942,3.062, /
&OBST ID='External stairs', SURF_ID='Gypsum wall', XB=-33.438,-31.562,3.782,4.154,2.702,2.822, /
&OBST ID='External stairs', SURF_ID='Gypsum wall', XB=-33.438,-31.562,4.030,4.402,2.582,2.702, /
&OBST ID='External stairs', SURF_ID='Gypsum wall', XB=-33.438,-31.562,4.030,4.650,2.461,2.582, /
&OBST ID='External stairs', SURF_ID='Gypsum wall', XB=-33.438,-31.562,4.278,4.650,2.341,2.461, /
&OBST ID='External stairs', SURF_ID='Gypsum wall', XB=-33.438,-31.562,4.526,5.022,2.221,2.341, /
&OBST ID='External stairs', SURF_ID='Gypsum wall', XB=-33.438,-31.562,4.898,5.146,1.981,2.221, /
&OBST ID='External stairs', SURF_ID='Gypsum wall', XB=-33.438,-30.188,-0.062,1.054,4.263,4.503, /
&OBST ID='External stairs', SURF_ID='Gypsum wall', XB=-33.312,-33.188,-0.186,-0.062,4.263,4.503, /
&OBST ID='External stairs', SURF_ID='Gypsum wall', XB=-33.188,-32.438,-0.310,-0.062,4.263,4.503, /
&OBST ID='External stairs', SURF_ID='Gypsum wall', XB=-33.062,-32.938,-0.434,-0.310,4.263,4.503, /
&OBST ID='External stairs', SURF_ID='Gypsum wall', XB=-32.938,-32.688,-0.558,-0.310,4.263,4.503, /
&OBST ID='External stairs', SURF_ID='Gypsum wall', XB=-32.812,-32.688,-0.682,-0.558,4.263,4.503, /
&OBST ID='External stairs', SURF_ID='Gypsum wall', XB=-32.688,-32.438,-0.806,-0.310,4.263,4.503, /
&OBST ID='External stairs', SURF_ID='Gypsum wall', XB=-32.562,-32.438,-0.930,-0.806,4.263,4.503, /
&OBST ID='External stairs', SURF_ID='Gypsum wall', XB=-32.438,-32.312,6.758,6.882,1.981,2.221, /
&OBST ID='External stairs', SURF_ID='Gypsum wall', XB=-32.438,-32.188,6.634,6.758,1.981,2.221, /
&OBST ID='External stairs', SURF_ID='Gypsum wall', XB=-32.438,-30.188,-1.054,-0.062,4.263,4.503, /
&OBST ID='External stairs', SURF_ID='Gypsum wall', XB=-32.062,-31.938,6.386,6.510,1.981,2.221, /
&OBST ID='External stairs', SURF_ID='Gypsum wall', XB=-32.062,-31.812,6.262,6.386,1.981,2.221, /
&OBST ID='External stairs', SURF_ID='Gypsum wall', XB=30.188,33.062,-1.054,-0.558,4.263,4.503, /
&OBST ID='External stairs', SURF_ID='Gypsum wall', XB=30.188,33.562,-0.558,-0.062,4.263,4.503, /
&OBST ID='External stairs', SURF_ID='Gypsum wall', XB=30.188,34.062,-0.062,1.054,4.263,4.503, /
&OBST ID='External stairs', SURF_ID='Gypsum wall', XB=32.188,34.062,1.054,1.302,4.263,4.503, /
&OBST ID='External stairs', SURF_ID='Gypsum wall', XB=32.188,34.062,1.178,1.674,4.142,4.263, /
&OBST ID='External stairs', SURF_ID='Gypsum wall', XB=32.188,34.062,1.426,1.922,4.022,4.142, /
&OBST ID='External stairs', SURF_ID='Gypsum wall', XB=32.188,34.062,1.426,2.170,3.902,4.022, /
&OBST ID='External stairs', SURF_ID='Gypsum wall', XB=32.188,34.062,1.798,2.170,3.782,3.902, /
&OBST ID='External stairs', SURF_ID='Gypsum wall', XB=32.188,34.062,2.046,2.418,3.662,3.782, /
&OBST ID='External stairs', SURF_ID='Gypsum wall', XB=32.188,34.062,2.294,2.790,3.542,3.662, /
&OBST ID='External stairs', SURF_ID='Gypsum wall', XB=32.188,34.062,2.294,3.038,3.422,3.542, /
&OBST ID='External stairs', SURF_ID='Gypsum wall', XB=32.188,34.062,2.542,3.038,3.302,3.422, /
&OBST ID='External stairs', SURF_ID='Gypsum wall', XB=32.188,34.062,2.914,3.286,3.182,3.302, /
&OBST ID='External stairs', SURF_ID='Gypsum wall', XB=32.188,34.062,3.162,3.410,2.942,3.182, /
&OBST ID='External stairs', SURF_ID='Gypsum wall', XB=32.188,34.062,3.410,3.534,3.062,3.182, /
&OBST ID='External stairs', SURF_ID='Gypsum wall', XB=32.188,34.062,3.410,3.906,2.822,3.062, /
&OBST ID='External stairs', SURF_ID='Gypsum wall', XB=32.188,34.062,3.782,4.154,2.702,2.822, /
&OBST ID='External stairs', SURF_ID='Gypsum wall', XB=32.188,34.062,4.030,4.278,2.461,2.582, /
&OBST ID='External stairs', SURF_ID='Gypsum wall', XB=32.188,34.062,4.030,4.402,2.582,2.702, /
&OBST ID='External stairs', SURF_ID='Gypsum wall', XB=32.188,34.062,4.278,4.650,2.341,2.582, /
&OBST ID='External stairs', SURF_ID='Gypsum wall', XB=32.188,34.062,4.526,6.014,2.221,2.341, /
&OBST ID='External stairs', SURF_ID='Gypsum wall', XB=32.188,34.062,5.890,6.386,2.101,2.221, /
&OBST ID='External stairs', SURF_ID='Gypsum wall', XB=32.188,34.062,5.890,6.634,1.981,2.101, /
&OBST ID='External stairs', SURF_ID='Gypsum wall', XB=32.188,34.062,6.262,6.634,1.861,1.981, /
&OBST ID='External stairs', SURF_ID='Gypsum wall', XB=32.188,34.062,6.510,7.006,1.741,1.861, /
&OBST ID='External stairs', SURF_ID='Gypsum wall', XB=32.188,34.062,6.882,7.254,1.501,1.741, /
&OBST ID='External stairs', SURF_ID='Gypsum wall', XB=32.188,34.062,7.130,7.254,1.381,1.501, /
&OBST ID='External stairs', SURF_ID='Gypsum wall', XB=32.188,34.062,7.254,7.502,1.381,1.621, /
&OBST ID='External stairs', SURF_ID='Gypsum wall', XB=32.188,34.062,7.378,7.874,1.261,1.381, /
&OBST ID='External stairs', SURF_ID='Gypsum wall', XB=32.188,34.062,7.750,8.122,1.021,1.261, /
&OBST ID='External stairs', SURF_ID='Gypsum wall', XB=32.188,34.062,7.998,8.122,0.901,1.021, /
&OBST ID='External stairs', SURF_ID='Gypsum wall', XB=32.188,34.062,8.122,8.494,0.901,1.141, /
&OBST ID='External stairs', SURF_ID='Gypsum wall', XB=32.188,34.062,8.370,8.742,0.780,0.901, /
&OBST ID='External stairs', SURF_ID='Gypsum wall', XB=32.188,34.062,8.618,8.866,0.540,0.780, /
&OBST ID='External stairs', SURF_ID='Gypsum wall', XB=32.188,34.062,8.866,8.990,0.660,0.780, /
&OBST ID='External stairs', SURF_ID='Gypsum wall', XB=32.188,34.062,8.866,9.362,0.420,0.660, /
&OBST ID='External stairs', SURF_ID='Gypsum wall', XB=32.188,34.062,9.238,9.610,0.300,0.420, /
&OBST ID='External stairs', SURF_ID='Gypsum wall', XB=32.188,34.062,9.486,9.982,0.180,0.300, /
&OBST ID='External stairs', SURF_ID='Gypsum wall', XB=32.188,34.062,9.486,10.230,0.060,0.180, /
&OBST ID='External stairs', SURF_ID='Gypsum wall', XB=32.188,34.062,9.858,10.230,-0.060,0.060, /
&OBST ID='External stairs', SURF_ID='Gypsum wall', XB=33.062,33.188,-0.930,-0.806,4.263,4.503, /
&OBST ID='External stairs', SURF_ID='Gypsum wall', XB=33.062,33.312,-0.806,-0.558,4.263,4.503, /
&OBST ID='External stairs', SURF_ID='Gypsum wall', XB=33.312,33.438,-0.682,-0.558,4.263,4.503, /
&OBST ID='External stairs', SURF_ID='Gypsum wall', XB=33.562,33.688,-0.434,-0.310,4.263,4.503, /
&OBST ID='External stairs', SURF_ID='Gypsum wall', XB=33.562,33.812,-0.310,-0.062,4.263,4.503, /
&OBST ID='External stairs', SURF_ID='Gypsum wall', XB=33.812,33.938,-0.186,-0.062,4.263,4.503, /
! Fire doors
&OBST ID='Fire doors', FYI='always closed', SURF_ID='Gypsum wall',
      XB=-1.062,1.062,4.402,4.650,-0.060,2.221, /
&OBST ID='Fire doors', FYI='always closed', SURF_ID='Gypsum wall',
      XB=-1.062,1.062,4.402,4.650,4.383,6.664, /
&OBST ID='Fire doors', FYI='always closed', SURF_ID='Gypsum wall',
      XB=-1.062,1.062,7.750,7.998,-0.060,2.221, /
&OBST ID='Fire doors', FYI='always closed', SURF_ID='Gypsum wall',
      XB=-1.062,1.062,7.750,7.998,4.383,6.664, /
! Floors
&OBST ID='Floors', SURF_ID='Gypsum wall', XB=-30.312,-2.062,-2.046,1.054,4.263,4.503, /
&OBST ID='Floors', SURF_ID='Gypsum wall', XB=-30.312,-2.062,-2.046,1.178,3.062,4.263, /
&OBST ID='Floors', SURF_ID='Gypsum wall', XB=-30.312,-1.938,1.054,13.826,4.263,4.503, /
&OBST ID='Floors', SURF_ID='Gypsum wall', XB=-30.312,-1.938,9.362,13.826,7.505,8.585, /
&OBST ID='Floors', SURF_ID='Gypsum wall', XB=-30.312,-1.938,9.610,13.826,3.062,4.263, /
&OBST ID='Floors', SURF_ID='Gypsum wall', XB=-30.312,-1.812,1.178,9.610,3.062,4.263, /
&OBST ID='Floors', SURF_ID='Gypsum wall', XB=-30.312,-1.438,-1.426,1.426,7.384,8.585, /
&OBST ID='Floors', SURF_ID='Gypsum wall', XB=-30.312,30.312,-13.826,-2.046,3.062,4.503, /
&OBST ID='Floors', SURF_ID='Gypsum wall', XB=-30.312,30.312,-13.826,-1.426,7.505,8.585, /
&OBST ID='Floors', SURF_ID='Gypsum wall', XB=-30.312,30.312,1.426,9.362,7.505,8.585, /
&OBST ID='Floors', SURF_ID='Gypsum wall', XB=-29.812,-3.562,1.426,2.294,7.024,7.505, /
&OBST ID='Floors', SURF_ID='Gypsum wall', XB=-29.812,-1.438,-1.426,1.426,7.024,7.384, /
&OBST ID='Floors', SURF_ID='Gypsum wall', XB=-29.812,29.812,-2.294,-1.426,7.024,7.505, /
&OBST ID='Floors', SURF_ID='Gypsum wall', XB=-21.938,-2.062,-1.054,1.798,2.582,3.062, /
&OBST ID='Floors', SURF_ID='Gypsum wall', XB=-21.938,-1.938,-2.294,-1.054,2.582,3.062, /
&OBST ID='Floors', SURF_ID='Gypsum wall', XB=-21.938,-1.312,1.798,2.294,2.582,3.062, /
&OBST ID='Floors', SURF_ID='Gypsum wall', XB=-18.938,-18.812,2.294,2.418,7.024,7.505, /
&OBST ID='Floors', SURF_ID='Gypsum wall', XB=-18.938,-18.688,-2.418,-2.294,7.024,7.505, /
&OBST ID='Floors', SURF_ID='Gypsum wall', XB=-18.812,-18.688,-2.542,-2.418,7.024,7.505, /
&OBST ID='Floors', SURF_ID='Gypsum wall', XB=-18.812,-16.188,2.294,2.542,7.024,7.505, /
&OBST ID='Floors', SURF_ID='Gypsum wall', XB=-18.688,-18.562,2.542,2.666,7.024,7.505, /
&OBST ID='Floors', SURF_ID='Gypsum wall', XB=-18.688,-18.438,-2.666,-2.294,7.024,7.505, /
&OBST ID='Floors', SURF_ID='Gypsum wall', XB=-18.562,-18.438,-2.790,-2.666,7.024,7.505, /
&OBST ID='Floors', SURF_ID='Gypsum wall', XB=-18.562,-18.438,2.542,2.790,7.024,7.505, /
&OBST ID='Floors', SURF_ID='Gypsum wall', XB=-18.438,-16.562,-2.914,-2.294,7.024,7.505, /
&OBST ID='Floors', SURF_ID='Gypsum wall', XB=-18.438,-16.562,2.542,2.914,7.024,7.505, /
&OBST ID='Floors', SURF_ID='Gypsum wall', XB=-18.312,-18.188,2.914,3.038,7.024,7.505, /
&OBST ID='Floors', SURF_ID='Gypsum wall', XB=-18.312,-16.688,-3.038,-2.914,7.024,7.505, /
&OBST ID='Floors', SURF_ID='Gypsum wall', XB=-18.188,-18.062,-3.162,-3.038,7.024,7.505, /
&OBST ID='Floors', SURF_ID='Gypsum wall', XB=-18.188,-17.812,2.914,3.162,7.024,7.505, /
&OBST ID='Floors', SURF_ID='Gypsum wall', XB=-18.062,-17.812,3.162,3.286,7.024,7.505, /
&OBST ID='Floors', SURF_ID='Gypsum wall', XB=-18.062,-17.688,-3.286,-3.038,7.024,7.505, /
&OBST ID='Floors', SURF_ID='Gypsum wall', XB=-17.938,-17.812,3.286,3.410,7.024,7.505, /
&OBST ID='Floors', SURF_ID='Gypsum wall', XB=-17.938,-17.688,-3.410,-3.286,7.024,7.505, /
&OBST ID='Floors', SURF_ID='Gypsum wall', XB=-17.812,-17.688,-3.534,-3.410,7.024,7.505, /
&OBST ID='Floors', SURF_ID='Gypsum wall', XB=-17.812,-17.188,2.914,3.534,7.024,7.505, /
&OBST ID='Floors', SURF_ID='Gypsum wall', XB=-17.688,-17.312,-3.658,-3.038,7.024,7.505, /
&OBST ID='Floors', SURF_ID='Gypsum wall', XB=-17.688,-17.312,3.534,3.658,7.024,7.505, /
&OBST ID='Floors', SURF_ID='Gypsum wall', XB=-17.562,-17.438,-3.782,-3.658,7.024,7.505, /
&OBST ID='Floors', SURF_ID='Gypsum wall', XB=-17.562,-17.438,3.658,3.782,7.024,7.505, /
&OBST ID='Floors', SURF_ID='Gypsum wall', XB=-17.312,-17.188,-3.534,-3.286,7.024,7.505, /
&OBST ID='Floors', SURF_ID='Gypsum wall', XB=-17.312,-16.938,-3.286,-3.038,7.024,7.505, /
&OBST ID='Floors', SURF_ID='Gypsum wall', XB=-17.188,-17.062,-3.410,-3.286,7.024,7.505, /
&OBST ID='Floors', SURF_ID='Gypsum wall', XB=-17.188,-17.062,2.914,3.410,7.024,7.505, /
&OBST ID='Floors', SURF_ID='Gypsum wall', XB=-17.062,-16.938,3.162,3.286,7.024,7.505, /
&OBST ID='Floors', SURF_ID='Gypsum wall', XB=-17.062,-16.812,2.914,3.162,7.024,7.505, /
&OBST ID='Floors', SURF_ID='Gypsum wall', XB=-16.938,-16.812,-3.162,-3.038,7.024,7.505, /
&OBST ID='Floors', SURF_ID='Gypsum wall', XB=-16.812,-16.688,2.914,3.038,7.024,7.505, /
&OBST ID='Floors', SURF_ID='Gypsum wall', XB=-16.562,-16.438,-2.790,-2.666,7.024,7.505, /
&OBST ID='Floors', SURF_ID='Gypsum wall', XB=-16.562,-16.438,2.666,2.790,7.024,7.505, /
&OBST ID='Floors', SURF_ID='Gypsum wall', XB=-16.562,-16.312,-2.666,-2.542,7.024,7.505, /
&OBST ID='Floors', SURF_ID='Gypsum wall', XB=-16.562,-16.312,2.542,2.666,7.024,7.505, /
&OBST ID='Floors', SURF_ID='Gypsum wall', XB=-16.562,-16.188,-2.542,-2.294,7.024,7.505, /
&OBST ID='Floors', SURF_ID='Gypsum wall', XB=-16.188,-16.062,-2.418,-2.294,7.024,7.505, /
&OBST ID='Floors', SURF_ID='Gypsum wall', XB=-16.188,-16.062,2.294,2.418,7.024,7.505, /
&OBST ID='Floors', SURF_ID='Gypsum wall', XB=-3.938,3.562,-4.526,-2.294,7.024,7.505, /
&OBST ID='Floors', SURF_ID='Gypsum wall', XB=-3.562,-1.438,-4.526,-2.294,2.582,3.062, /
&OBST ID='Floors', SURF_ID='Gypsum wall', XB=-3.562,3.562,1.426,4.526,7.024,7.505, /
&OBST ID='Floors', SURF_ID='Gypsum wall', XB=-3.562,3.562,2.294,4.526,2.582,3.062, /
&OBST ID='Floors', SURF_ID='Gypsum wall', XB=-2.188,-1.938,13.826,14.074,3.302,4.503, /
&OBST ID='Floors', SURF_ID='Gypsum wall', XB=-2.188,-1.938,13.826,15.190,3.062,3.302, /
&OBST ID='Floors', SURF_ID='Gypsum wall', XB=-2.188,-1.938,13.826,15.190,7.505,8.585, /
&OBST ID='Floors', SURF_ID='Gypsum wall', XB=-2.188,-1.938,15.066,15.190,3.302,4.503, /
&OBST ID='Floors', SURF_ID='Gypsum wall', XB=-2.188,1.938,15.190,15.438,3.062,3.302, /
&OBST ID='Floors', SURF_ID='Gypsum wall', XB=-2.188,2.188,15.190,15.438,3.302,4.503, /
&OBST ID='Floors', SURF_ID='Gypsum wall', XB=-2.188,2.188,15.190,15.438,7.505,8.585, /
&OBST ID='Floors', SURF_ID='Gypsum wall', XB=-2.062,-1.938,-2.046,-1.054,3.062,4.503, /
&OBST ID='Floors', SURF_ID='Gypsum wall', XB=-2.062,-1.938,1.054,1.178,3.062,4.263, /
&OBST ID='Floors', SURF_ID='Gypsum wall', XB=-2.062,-1.938,1.054,1.550,2.582,3.062, /
&OBST ID='Floors', SURF_ID='Gypsum wall', XB=-2.062,-1.438,1.550,1.798,2.582,3.062, /
&OBST ID='Floors', SURF_ID='Gypsum wall', XB=-1.938,-1.812,-1.302,-1.178,2.582,4.503, /
&OBST ID='Floors', SURF_ID='Gypsum wall', XB=-1.938,-1.812,1.178,1.550,2.582,3.062, /
&OBST ID='Floors', SURF_ID='Gypsum wall', XB=-1.938,-1.812,1.178,2.046,4.263,4.503, /
&OBST ID='Floors', SURF_ID='Gypsum wall', XB=-1.938,-1.688,-2.046,-1.302,2.582,4.503, /
&OBST ID='Floors', SURF_ID='Gypsum wall', XB=-1.938,1.938,2.046,7.998,4.263,4.503, /
&OBST ID='Floors', SURF_ID='Gypsum wall', XB=-1.938,20.188,-2.294,-2.046,2.582,3.062, /
&OBST ID='Floors', SURF_ID='Gypsum wall', XB=-1.812,-1.688,1.302,1.426,2.582,4.503, /
&OBST ID='Floors', SURF_ID='Gypsum wall', XB=-1.812,-1.562,1.426,1.550,2.582,4.503, /
&OBST ID='Floors', SURF_ID='Gypsum wall', XB=-1.812,-1.438,1.550,2.046,3.062,4.503, /
&OBST ID='Floors', SURF_ID='Gypsum wall', XB=-1.812,1.938,2.046,9.610,3.062,4.263, /
&OBST ID='Floors', SURF_ID='Gypsum wall', XB=-1.688,-1.562,-1.550,-1.426,2.582,4.503, /
&OBST ID='Floors', SURF_ID='Gypsum wall', XB=-1.688,-1.438,-1.922,-1.550,2.582,4.503, /
&OBST ID='Floors', SURF_ID='Gypsum wall', XB=-1.688,-1.062,-2.046,-1.922,2.582,4.503, /
&OBST ID='Floors', SURF_ID='Gypsum wall', XB=-1.438,-1.312,-1.922,-1.674,2.582,4.503, /
&OBST ID='Floors', SURF_ID='Gypsum wall', XB=-1.438,-1.312,1.798,1.922,3.062,4.503, /
&OBST ID='Floors', SURF_ID='Gypsum wall', XB=-1.438,-1.188,1.922,2.046,3.062,4.503, /
&OBST ID='Floors', SURF_ID='Gypsum wall', XB=-1.438,1.438,-13.702,-2.294,2.582,3.062, /
&OBST ID='Floors', SURF_ID='Gypsum wall', XB=-1.312,-1.188,-1.922,-1.798,2.582,4.503, /
&OBST ID='Floors', SURF_ID='Gypsum wall', XB=-1.312,-1.188,1.922,2.046,2.582,3.062, /
&OBST ID='Floors', SURF_ID='Gypsum wall', XB=-1.312,1.688,2.046,2.294,2.582,3.062, /
&OBST ID='Floors', SURF_ID='Gypsum wall', XB=1.062,1.312,-2.046,-1.922,2.582,4.503, /
&OBST ID='Floors', SURF_ID='Gypsum wall', XB=1.062,1.688,1.922,2.046,2.582,3.062, /
&OBST ID='Floors', SURF_ID='Gypsum wall', XB=1.062,1.938,1.922,2.046,3.062,4.503, /
&OBST ID='Floors', SURF_ID='Gypsum wall', XB=1.188,1.312,-1.922,-1.798,2.582,4.503, /
&OBST ID='Floors', SURF_ID='Gypsum wall', XB=1.188,1.312,1.798,1.922,2.582,4.503, /
&OBST ID='Floors', SURF_ID='Gypsum wall', XB=1.312,1.562,-2.046,-1.674,2.582,4.503, /
&OBST ID='Floors', SURF_ID='Gypsum wall', XB=1.312,1.688,1.674,1.922,2.582,3.062, /
&OBST ID='Floors', SURF_ID='Gypsum wall', XB=1.312,1.812,1.674,1.922,3.062,4.503, /
&OBST ID='Floors', SURF_ID='Gypsum wall', XB=1.438,1.562,-1.674,-1.550,2.582,4.503, /