
!!! Generated by BlenderFDS 2.0.1 on Blender 2.66 (sub 0)

! Blender file: /home/egissi/Documenti/Argomenti/BlenderFDS/releases/BlenderFDS_2.0.1/examples/cthun/cthun.blend
! Date: Mon, 06 May 2013 23:41:51

&HEAD CHID='cthun-s0-1', TITLE='Thun Castle (s0-1) fire in F-1', /

!!! External config file

&TIME T_END=0.0 /

&REAC ID='0PE+0.25PU+0EX+0.75Wood',
      SOOT_YIELD=0.058, CO_YIELD=0.01, C=1, H=1.805, O=0.614, N=0.016,
      HEAT_OF_COMBUSTION=19175., IDEAL=.TRUE. /
Chemical formula from http://www.chemindustry.com chemical info service
Other data from Tewarson SFPE Handbook 3rd ed, SFPE handbook table 3-4.14, p. 3-112.
See calculation table for all the details.

&MATL ID='Gypsum plaster', CONDUCTIVITY=0.48,
      SPECIFIC_HEAT=0.84, DENSITY=1440. /
      Thermo-physical properties of gypsum plaster.
      
&ISOF QUANTITY='TEMPERATURE', VALUE(1)=50. /
&ISOF QUANTITY='VISIBILITY', VALUE(1)=10. /
_BNDF QUANTITY='ADIABATIC SURFACE TEMPERATURE' /

!!! Boundary condition defs

! burner
&SURF ID='burner', FYI='2.5 MW max, fast fire (1MW @ 150s)', RGB=204,0,4,
      HRRPUA=500., TAU_Q=-237.17, /
! glass
&SURF ID='glass', RGB=0,255,255, TRANSPARENCY=0.250, /
! ground
&SURF ID='ground', RGB=34,221,0, /
! roof.001
&SURF ID='roof.001', RGB=68,19,3, /
! roof.002
&SURF ID='roof.002', RGB=51,14,2, /
! stair
&SURF ID='stair', RGB=142,138,28, /
! wall.001
&SURF ID='wall.001', RGB=140,151,118, /
! wall.002
&SURF ID='wall.002', RGB=170,184,83, /

!!! Computational domain

! Dom.000, 210600 cells, cell size is 0.300 x 0.300 x 0.301, from bounding box, in 0.001 s
&MESH ID='Dom.000', IJK=52,54,75, XB=-20.685,-5.085,-19.693,-3.493,9.027,31.627, /
! Dom.001, 192000 cells, cell size is 0.300 x 0.300 x 0.301, from bounding box, in 0.001 s
&MESH ID='Dom.001', IJK=40,64,75, XB=-5.085,6.915,-22.693,-3.493,9.027,31.627, /
! Dom.002, 244800 cells, cell size is 0.300 x 0.300 x 0.301, from bounding box, in 0.001 s
&MESH ID='Dom.002', IJK=68,48,75, XB=-20.685,-0.285,-3.493,10.907,9.027,31.627, /
! Dom.003, 174000 cells, cell size is 0.300 x 0.300 x 0.301, from bounding box, in 0.001 s
&MESH ID='Dom.003', IJK=58,40,75, XB=-17.685,-0.285,10.907,22.907,9.027,31.627, /
! Dom.004, 223200 cells, cell size is 0.300 x 0.300 x 0.301, from bounding box, in 0.001 s
&MESH ID='Dom.004', IJK=62,48,75, XB=-0.285,18.315,4.907,19.307,9.027,31.627, /
! Dom.005, 135000 cells, cell size is 0.300 x 0.300 x 0.301, from bounding box, in 0.001 s
&MESH ID='Dom.005', IJK=50,36,75, XB=6.915,21.915,-5.893,4.907,9.027,31.627, /
! Dom.006, 151200 cells, cell size is 0.300 x 0.300 x 0.301, from bounding box, in 0.001 s
&MESH ID='Dom.006', IJK=42,48,75, XB=6.915,19.515,-20.293,-5.893,9.027,31.627, /
! Dom.007, 50400 cells, cell size is 0.300 x 0.300 x 0.301, from bounding box, in 0.001 s
&MESH ID='Dom.007', IJK=24,28,75, IJK=24,28,75,
      XB=-0.285,6.915,-3.493,4.907,9.027,31.627, /

!!! Geometry

! A0 burner s0 s1, from bounding box, in 0.001 s
&OBST ID='A0 burner s0 s1', SURF_ID='burner',
      XB=3.398,4.398,-13.262,-12.262,9.000,10.000, /
! Dom bc hor top, from 1 faces, in 0.001 s
&VENT ID='Dom bc hor top', SURF_ID='OPEN', PBZ=31.627, /
! Dom bc vert ext, from 18 faces, in 0.003 s
&VENT ID='Dom bc vert ext_0', SURF_ID='OPEN',
      XB=-20.685,-20.685,-19.693,-3.493,9.027,31.627, /
&VENT ID='Dom bc vert ext_1', SURF_ID='OPEN',
      XB=-20.685,-20.685,-3.493,10.907,9.027,31.627, /
&VENT ID='Dom bc vert ext_2', SURF_ID='OPEN',
      XB=-20.685,-17.685,10.907,10.907,9.027,31.627, /
&VENT ID='Dom bc vert ext_3', SURF_ID='OPEN',
      XB=-20.685,-5.085,-19.693,-19.693,9.027,31.627, /
&VENT ID='Dom bc vert ext_4', SURF_ID='OPEN',
      XB=-17.685,-17.685,10.907,22.907,9.027,31.627, /
&VENT ID='Dom bc vert ext_5', SURF_ID='OPEN',
      XB=-17.685,-0.285,22.907,22.907,9.027,31.627, /
&VENT ID='Dom bc vert ext_6', SURF_ID='OPEN',
      XB=-5.085,-5.085,-22.693,-19.693,9.027,31.627, /
&VENT ID='Dom bc vert ext_7', SURF_ID='OPEN',
      XB=-5.085,6.915,-22.693,-22.693,9.027,31.627, /
&VENT ID='Dom bc vert ext_8', SURF_ID='OPEN',
      XB=-0.285,-0.285,19.307,22.907,9.027,31.627, /
&VENT ID='Dom bc vert ext_9', SURF_ID='OPEN',
      XB=-0.285,18.315,19.307,19.307,9.027,31.627, /
&VENT ID='Dom bc vert ext_10', SURF_ID='OPEN',
      XB=6.915,6.915,-22.693,-22.693,9.027,31.627, /
&VENT ID='Dom bc vert ext_11', SURF_ID='OPEN',
      XB=6.915,6.915,-22.693,-20.293,9.027,31.627, /
&VENT ID='Dom bc vert ext_12', SURF_ID='OPEN',
      XB=6.915,19.515,-20.293,-20.293,9.027,31.627, /
&VENT ID='Dom bc vert ext_13', SURF_ID='OPEN',
      XB=18.315,18.315,4.907,19.307,9.027,31.627, /
&VENT ID='Dom bc vert ext_14', SURF_ID='OPEN',
      XB=18.315,21.915,4.907,4.907,9.027,31.627, /
&VENT ID='Dom bc vert ext_15', SURF_ID='OPEN',
      XB=19.515,19.515,-20.293,-5.893,9.027,31.627, /
&VENT ID='Dom bc vert ext_16', SURF_ID='OPEN',
      XB=19.515,21.915,-5.893,-5.893,9.027,31.627, /
&VENT ID='Dom bc vert ext_17', SURF_ID='OPEN',
      XB=21.915,21.915,-5.893,4.907,9.027,31.627, /
! F-1 glasspane.000, from bounding box, in 0.001 s
&OBST ID='F-1 glasspane.000', SURF_ID='glass',
      XB=-17.047,-17.047,7.391,8.591,11.566,12.766, /
! F-1 glasspane.001, from bounding box, in 0.001 s
&OBST ID='F-1 glasspane.001', SURF_ID='glass',
      XB=-17.996,-17.996,-2.606,-1.406,11.566,12.766, /
! F-1 glasspane.002, from bounding box, in 0.000 s
&OBST ID='F-1 glasspane.002', SURF_ID='glass',
      XB=-17.996,-17.996,-7.133,-5.933,11.566,12.766, /
! F-1 glasspane.003, from bounding box, in 0.000 s
&OBST ID='F-1 glasspane.003', SURF_ID='glass',
      XB=-16.679,-16.679,-14.226,-13.026,11.566,12.766, /
! F-1 glasspane.004, from bounding box, in 0.000 s
&OBST ID='F-1 glasspane.004', SURF_ID='glass',
      XB=-0.953,0.247,-7.759,-6.559,12.524,12.524, /
! F-1 glasspane.005, from bounding box, in 0.000 s
&OBST ID='F-1 glasspane.005', SURF_ID='glass',
      XB=1.137,2.737,-7.759,-6.559,12.524,12.524, /
! F-1 glasspane.006, from bounding box, in 0.001 s
&OBST ID='F-1 glasspane.006', SURF_ID='glass',
      XB=3.883,5.483,-7.759,-6.559,12.524,12.524, /
! F-1 glasspane.007, from bounding box, in 0.001 s
&OBST ID='F-1 glasspane.007', SURF_ID='glass',
      XB=6.208,7.808,-7.759,-6.559,12.524,12.524, /
! F-1 glasspane.009, from bounding box, in 0.001 s
&OBST ID='F-1 glasspane.009', SURF_ID='glass',
      XB=-8.956,-7.356,18.945,18.945,11.566,12.766, /
! F-1 ground, from voxelization (183 voxels, voxel size is 0.300), in 3.582 s
&OBST ID='F-1 ground_0', SURF_ID='ground', SAWTOOTH=.FALSE.,
      XB=-17.051,-16.749,-14.351,-12.849,9.026,11.128, /
&OBST ID='F-1 ground_1', SURF_ID='ground', SAWTOOTH=.FALSE.,
      XB=-12.551,-11.649,20.449,20.751,9.026,12.028, /
&OBST ID='F-1 ground_2', SURF_ID='ground', SAWTOOTH=.FALSE.,
      XB=-22.151,-2.349,-19.451,-19.149,9.026,12.628, /
&OBST ID='F-1 ground_3', SURF_ID='ground', SAWTOOTH=.FALSE.,
      XB=5.149,22.851,-19.151,-18.849,9.026,12.628, /
&OBST ID='F-1 ground_4', SURF_ID='ground', SAWTOOTH=.FALSE.,
      XB=-18.251,-17.949,-14.351,-12.549,9.026,12.028, /
&OBST ID='F-1 ground_5', SURF_ID='ground', SAWTOOTH=.FALSE.,
      XB=-18.551,-18.249,-5.651,-5.349,9.026,11.728, /
&OBST ID='F-1 ground_6', SURF_ID='ground', SAWTOOTH=.FALSE.,
      XB=0.649,22.851,15.949,16.251,9.026,12.628, /
&OBST ID='F-1 ground_7', SURF_ID='ground', SAWTOOTH=.FALSE.,
      XB=-12.551,-11.049,19.849,20.151,9.026,12.028, /
&OBST ID='F-1 ground_8', SURF_ID='ground', SAWTOOTH=.FALSE.,
      XB=-5.951,-5.649,17.749,18.051,12.026,12.628, /
&OBST ID='F-1 ground_9', SURF_ID='ground', SAWTOOTH=.FALSE.,
      XB=-17.651,-16.749,5.149,5.451,9.026,11.428, /
&OBST ID='F-1 ground_10', SURF_ID='ground', SAWTOOTH=.FALSE.,
      XB=-17.651,-17.349,-2.651,-1.149,9.026,10.828, /
&OBST ID='F-1 ground_11', SURF_ID='ground', SAWTOOTH=.FALSE.,
      XB=-6.251,-5.949,19.249,19.551,11.126,12.628, /
&OBST ID='F-1 ground_12', SURF_ID='ground', SAWTOOTH=.FALSE.,
      XB=-19.151,-17.649,0.649,2.151,9.026,12.928, /
&OBST ID='F-1 ground_13', SURF_ID='ground', SAWTOOTH=.FALSE.,
      XB=-19.751,-17.649,-8.051,-7.749,9.026,12.328, /
&OBST ID='F-1 ground_14', SURF_ID='ground', SAWTOOTH=.FALSE.,
      XB=-7.451,-7.149,20.749,21.051,9.026,12.328, /
&OBST ID='F-1 ground_15', SURF_ID='ground', SAWTOOTH=.FALSE.,
      XB=-18.551,-18.249,6.349,8.751,9.026,12.328, /
&OBST ID='F-1 ground_16', SURF_ID='ground', SAWTOOTH=.FALSE.,
      XB=-18.551,-18.249,-2.951,-1.149,9.026,11.728, /
&OBST ID='F-1 ground_17', SURF_ID='ground', SAWTOOTH=.FALSE.,
      XB=-19.151,-18.849,-7.451,-5.649,9.026,12.028, /
&OBST ID='F-1 ground_18', SURF_ID='ground', SAWTOOTH=.FALSE.,
      XB=-6.551,-5.949,19.549,19.851,10.826,12.628, /
&OBST ID='F-1 ground_19', SURF_ID='ground', SAWTOOTH=.FALSE.,
      XB=-22.151,-19.749,-7.451,-5.349,9.026,12.628, /
&OBST ID='F-1 ground_20', SURF_ID='ground', SAWTOOTH=.FALSE.,
      XB=-5.951,-5.649,18.649,18.951,10.826,12.628, /
&OBST ID='F-1 ground_21', SURF_ID='ground', SAWTOOTH=.FALSE.,
      XB=-6.851,22.851,20.149,20.451,9.026,12.628, /
&OBST ID='F-1 ground_22', SURF_ID='ground', SAWTOOTH=.FALSE.,
      XB=-16.751,-16.449,5.149,5.451,9.026,11.128, /
&OBST ID='F-1 ground_23', SURF_ID='ground', SAWTOOTH=.FALSE.,
      XB=-6.251,-5.949,18.349,18.651,12.326,12.628, /
&OBST ID='F-1 ground_24', SURF_ID='ground', SAWTOOTH=.FALSE.,
      XB=-6.551,-6.249,19.249,19.551,12.326,12.628, /
&OBST ID='F-1 ground_25', SURF_ID='ground', SAWTOOTH=.FALSE.,
      XB=-19.751,-19.149,-7.451,-5.349,9.026,12.328, /
&OBST ID='F-1 ground_26', SURF_ID='ground', SAWTOOTH=.FALSE.,
      XB=-5.951,-5.649,18.049,18.351,11.726,12.628, /
&OBST ID='F-1 ground_27', SURF_ID='ground', SAWTOOTH=.FALSE.,
      XB=-17.351,-17.049,-1.751,-1.449,9.926,10.528, /
&OBST ID='F-1 ground_28', SURF_ID='ground', SAWTOOTH=.FALSE.,
      XB=-17.951,-17.349,6.349,8.751,9.026,11.728, /
&OBST ID='F-1 ground_29', SURF_ID='ground', SAWTOOTH=.FALSE.,
      XB=-17.351,-16.149,8.449,8.751,9.026,11.428, /
&OBST ID='F-1 ground_30', SURF_ID='ground', SAWTOOTH=.FALSE.,
      XB=-18.851,-18.249,-7.451,-5.649,9.026,11.728, /
&OBST ID='F-1 ground_31', SURF_ID='ground', SAWTOOTH=.FALSE.,
      XB=-17.051,-16.749,-3.251,-2.949,9.026,11.728, /
&OBST ID='F-1 ground_32', SURF_ID='ground', SAWTOOTH=.FALSE.,
      XB=-18.551,-17.949,-7.751,-7.449,9.026,11.728, /
&OBST ID='F-1 ground_33', SURF_ID='ground', SAWTOOTH=.FALSE.,
      XB=-13.451,-12.549,19.549,19.851,9.326,12.328, /
&OBST ID='F-1 ground_34', SURF_ID='ground', SAWTOOTH=.FALSE.,
      XB=-11.651,-10.149,20.449,20.751,9.026,12.328, /
&OBST ID='F-1 ground_35', SURF_ID='ground', SAWTOOTH=.FALSE.,
      XB=-22.151,-19.449,2.149,2.751,9.026,12.628, /
&OBST ID='F-1 ground_36', SURF_ID='ground', SAWTOOTH=.FALSE.,
      XB=-16.751,-16.149,-14.351,-13.149,9.026,10.828, /
&OBST ID='F-1 ground_37', SURF_ID='ground', SAWTOOTH=.FALSE.,
      XB=-17.651,-17.049,-2.951,-2.649,9.026,10.828, /
&OBST ID='F-1 ground_38', SURF_ID='ground', SAWTOOTH=.FALSE.,
      XB=-17.051,-16.749,4.849,5.151,9.026,11.728, /
&OBST ID='F-1 ground_39', SURF_ID='ground', SAWTOOTH=.FALSE.,
      XB=-18.551,-17.949,4.849,5.451,9.026,12.028, /
&OBST ID='F-1 ground_40', SURF_ID='ground', SAWTOOTH=.FALSE.,
      XB=-6.851,-6.549,19.549,19.851,10.826,12.328, /
&OBST ID='F-1 ground_41', SURF_ID='ground', SAWTOOTH=.FALSE.,
      XB=-22.151,-19.449,-7.751,-7.449,9.026,12.628, /
&OBST ID='F-1 ground_42', SURF_ID='ground', SAWTOOTH=.FALSE.,
      XB=-5.951,-5.649,19.249,19.551,10.226,12.628, /
&OBST ID='F-1 ground_43', SURF_ID='ground', SAWTOOTH=.FALSE.,
      XB=-19.151,-18.549,-5.651,-5.349,9.026,12.028, /
&OBST ID='F-1 ground_44', SURF_ID='ground', SAWTOOTH=.FALSE.,
      XB=14.749,22.851,-14.351,15.351,9.026,12.628, /
&OBST ID='F-1 ground_45', SURF_ID='ground', SAWTOOTH=.FALSE.,
      XB=3.349,22.851,-19.451,-19.149,9.026,12.628, /
&OBST ID='F-1 ground_46', SURF_ID='ground', SAWTOOTH=.FALSE.,
      XB=-7.751,-7.149,20.149,20.451,9.026,12.028, /
&OBST ID='F-1 ground_47', SURF_ID='ground', SAWTOOTH=.FALSE.,
      XB=-22.151,-19.449,-5.351,-5.049,9.026,12.628, /
&OBST ID='F-1 ground_48', SURF_ID='ground', SAWTOOTH=.FALSE.,
      XB=-17.351,-17.049,3.049,3.351,9.026,10.528, /
&OBST ID='F-1 ground_49', SURF_ID='ground', SAWTOOTH=.FALSE.,
      XB=-18.251,-17.949,5.449,8.751,9.026,12.028, /
&OBST ID='F-1 ground_50', SURF_ID='ground', SAWTOOTH=.FALSE.,
      XB=-19.451,-17.649,2.149,2.751,9.026,12.928, /
&OBST ID='F-1 ground_51', SURF_ID='ground', SAWTOOTH=.FALSE.,
      XB=-8.951,-7.149,20.449,20.751,9.026,12.328, /
&OBST ID='F-1 ground_52', SURF_ID='ground', SAWTOOTH=.FALSE.,
      XB=-18.851,-18.249,5.449,6.351,9.026,12.328, /
&OBST ID='F-1 ground_53', SURF_ID='ground', SAWTOOTH=.FALSE.,
      XB=-18.851,-17.349,3.049,3.351,9.026,12.628, /
&OBST ID='F-1 ground_54', SURF_ID='ground', SAWTOOTH=.FALSE.,
      XB=-12.551,-10.449,20.149,20.451,9.026,12.028, /
&OBST ID='F-1 ground_55', SURF_ID='ground', SAWTOOTH=.FALSE.,
      XB=-17.651,-17.349,0.049,2.751,9.026,11.728, /
&OBST ID='F-1 ground_56', SURF_ID='ground', SAWTOOTH=.FALSE.,
      XB=-22.151,22.851,21.349,24.051,9.026,12.628, /
&OBST ID='F-1 ground_57', SURF_ID='ground', SAWTOOTH=.FALSE.,
      XB=-6.851,-6.549,19.249,19.551,12.026,12.328, /
&OBST ID='F-1 ground_58', SURF_ID='ground', SAWTOOTH=.FALSE.,
      XB=-17.651,-17.049,4.849,5.151,9.026,11.428, /
&OBST ID='F-1 ground_59', SURF_ID='ground', SAWTOOTH=.FALSE.,
      XB=-22.151,-15.849,-16.451,-14.649,9.026,12.328, /
&OBST ID='F-1 ground_60', SURF_ID='ground', SAWTOOTH=.FALSE.,
      XB=-19.151,-18.849,-2.951,-1.149,9.026,12.328, /
&OBST ID='F-1 ground_61', SURF_ID='ground', SAWTOOTH=.FALSE.,
      XB=-16.751,-16.449,-7.451,-5.649,9.026,10.528, /
&OBST ID='F-1 ground_62', SURF_ID='ground', SAWTOOTH=.FALSE.,
      XB=-22.151,-16.449,-5.051,-3.249,9.026,12.628, /
&OBST ID='F-1 ground_63', SURF_ID='ground', SAWTOOTH=.FALSE.,
      XB=-17.351,-16.449,5.449,5.751,9.026,11.128, /
&OBST ID='F-1 ground_64', SURF_ID='ground', SAWTOOTH=.FALSE.,
      XB=-22.151,-18.549,6.349,8.751,9.026,12.628, /
&OBST ID='F-1 ground_65', SURF_ID='ground', SAWTOOTH=.FALSE.,
      XB=-22.151,-16.449,-11.351,-8.649,9.026,12.328, /
&OBST ID='F-1 ground_66', SURF_ID='ground', SAWTOOTH=.FALSE.,
      XB=-10.451,-7.149,19.549,19.851,10.226,11.728, /
&OBST ID='F-1 ground_67', SURF_ID='ground', SAWTOOTH=.FALSE.,
      XB=-17.051,-16.749,-14.651,-14.349,9.026,11.428, /
&OBST ID='F-1 ground_68', SURF_ID='ground', SAWTOOTH=.FALSE.,
      XB=-10.451,-9.849,19.249,19.551,11.126,11.728, /
&OBST ID='F-1 ground_69', SURF_ID='ground', SAWTOOTH=.FALSE.,
      XB=-18.551,-18.249,3.649,3.951,9.026,12.028, /
&OBST ID='F-1 ground_70', SURF_ID='ground', SAWTOOTH=.FALSE.,
      XB=-10.451,-7.749,20.149,20.451,9.026,12.328, /
&OBST ID='F-1 ground_71', SURF_ID='ground', SAWTOOTH=.FALSE.,
      XB=-6.251,-5.949,18.649,18.951,12.026,12.628, /
&OBST ID='F-1 ground_72', SURF_ID='ground', SAWTOOTH=.FALSE.,
      XB=-17.351,-17.049,-7.751,-7.449,9.026,11.128, /
&OBST ID='F-1 ground_73', SURF_ID='ground', SAWTOOTH=.FALSE.,
      XB=-13.751,-11.349,20.749,21.051,9.026,12.328, /
&OBST ID='F-1 ground_74', SURF_ID='ground', SAWTOOTH=.FALSE.,
      XB=-18.851,-18.549,-2.951,-1.149,9.026,12.028, /
&OBST ID='F-1 ground_75', SURF_ID='ground', SAWTOOTH=.FALSE.,
      XB=-9.851,-6.849,19.249,19.551,11.426,11.728, /
&OBST ID='F-1 ground_76', SURF_ID='ground', SAWTOOTH=.FALSE.,
      XB=-22.151,-4.149,-19.151,-18.849,9.026,12.628, /
&OBST ID='F-1 ground_77', SURF_ID='ground', SAWTOOTH=.FALSE.,
      XB=-16.451,-16.149,-10.751,-10.449,10.226,12.328, /
&OBST ID='F-1 ground_78', SURF_ID='ground', SAWTOOTH=.FALSE.,
      XB=-18.251,-17.049,3.649,3.951,9.026,12.328, /
&OBST ID='F-1 ground_79', SURF_ID='ground', SAWTOOTH=.FALSE.,
      XB=-7.151,-6.849,20.149,20.451,9.026,12.328, /
&OBST ID='F-1 ground_80', SURF_ID='ground', SAWTOOTH=.FALSE.,
      XB=-17.651,-17.349,-1.151,0.051,9.026,11.428, /
&OBST ID='F-1 ground_81', SURF_ID='ground', SAWTOOTH=.FALSE.,
      XB=-20.651,-16.449,-8.651,-8.349,9.026,12.328, /
&OBST ID='F-1 ground_82', SURF_ID='ground', SAWTOOTH=.FALSE.,
      XB=-22.151,-18.849,-0.251,0.651,9.026,12.628, /
&OBST ID='F-1 ground_83', SURF_ID='ground', SAWTOOTH=.FALSE.,
      XB=-16.451,-16.149,-11.351,-11.049,9.326,12.328, /
&OBST ID='F-1 ground_84', SURF_ID='ground', SAWTOOTH=.FALSE.,
      XB=-22.151,-17.949,-14.651,-14.349,9.026,12.328, /
&OBST ID='F-1 ground_85', SURF_ID='ground', SAWTOOTH=.FALSE.,
      XB=-22.151,-20.049,-8.351,-8.049,9.026,12.628, /
&OBST ID='F-1 ground_86', SURF_ID='ground', SAWTOOTH=.FALSE.,
      XB=-17.651,-17.349,-3.251,-2.949,9.026,12.328, /
&OBST ID='F-1 ground_87', SURF_ID='ground', SAWTOOTH=.FALSE.,
      XB=-19.451,-18.849,-7.751,-7.449,9.026,12.328, /
&OBST ID='F-1 ground_88', SURF_ID='ground', SAWTOOTH=.FALSE.,
      XB=-19.151,-18.849,3.049,3.351,9.026,12.328, /
&OBST ID='F-1 ground_89', SURF_ID='ground', SAWTOOTH=.FALSE.,
      XB=-17.051,-16.449,-8.051,-7.749,9.026,11.728, /
&OBST ID='F-1 ground_90', SURF_ID='ground', SAWTOOTH=.FALSE.,
      XB=-17.651,-17.049,5.749,6.351,9.026,11.428, /
&OBST ID='F-1 ground_91', SURF_ID='ground', SAWTOOTH=.FALSE.,
      XB=1.549,22.851,15.649,15.951,9.026,12.628, /
&OBST ID='F-1 ground_92', SURF_ID='ground', SAWTOOTH=.FALSE.,
      XB=-11.051,-10.749,19.849,20.151,9.026,11.728, /
&OBST ID='F-1 ground_93', SURF_ID='ground', SAWTOOTH=.FALSE.,
      XB=-17.651,-17.049,-5.651,-5.349,9.026,11.128, /
&OBST ID='F-1 ground_94', SURF_ID='ground', SAWTOOTH=.FALSE.,
      XB=-17.351,-17.049,-3.251,-2.949,9.026,12.028, /
&OBST ID='F-1 ground_95', SURF_ID='ground', SAWTOOTH=.FALSE.,
      XB=-17.951,-17.349,-7.751,-7.449,9.026,11.428, /
&OBST ID='F-1 ground_96', SURF_ID='ground', SAWTOOTH=.FALSE.,
      XB=-11.351,-7.449,20.749,21.051,9.026,12.628, /
&OBST ID='F-1 ground_97', SURF_ID='ground', SAWTOOTH=.FALSE.,
      XB=-17.651,-17.049,4.249,4.551,9.026,12.028, /
&OBST ID='F-1 ground_98', SURF_ID='ground', SAWTOOTH=.FALSE.,
      XB=-18.851,-17.649,-0.251,0.651,9.026,12.928, /
&OBST ID='F-1 ground_99', SURF_ID='ground', SAWTOOTH=.FALSE.,
      XB=-11.051,-10.449,19.549,19.851,9.926,11.728, /
&OBST ID='F-1 ground_100', SURF_ID='ground', SAWTOOTH=.FALSE.,
      XB=-22.151,-16.149,-12.551,-11.349,9.026,12.328, /
&OBST ID='F-1 ground_101', SURF_ID='ground', SAWTOOTH=.FALSE.,
      XB=-17.051,-16.449,-5.651,-5.349,9.026,10.828, /
&OBST ID='F-1 ground_102', SURF_ID='ground', SAWTOOTH=.FALSE.,
      XB=-5.951,-5.649,19.549,19.851,9.926,12.628, /
&OBST ID='F-1 ground_103', SURF_ID='ground', SAWTOOTH=.FALSE.,
      XB=-17.951,-17.349,-14.651,-14.349,9.026,12.028, /
&OBST ID='F-1 ground_104', SURF_ID='ground', SAWTOOTH=.FALSE.,
      XB=-5.951,-5.649,18.949,19.251,10.526,12.628, /
&OBST ID='F-1 ground_105', SURF_ID='ground', SAWTOOTH=.FALSE.,
      XB=-22.151,-15.849,-18.851,-16.449,9.026,12.628, /
&OBST ID='F-1 ground_106', SURF_ID='ground', SAWTOOTH=.FALSE.,
      XB=-22.151,-18.549,-0.851,-0.249,9.026,12.628, /
&OBST ID='F-1 ground_107', SURF_ID='ground', SAWTOOTH=.FALSE.,
      XB=-16.451,-16.149,-13.151,-12.849,9.026,10.528, /
&OBST ID='F-1 ground_108', SURF_ID='ground', SAWTOOTH=.FALSE.,
      XB=-22.151,-16.149,8.749,11.151,9.026,12.628, /
&OBST ID='F-1 ground_109', SURF_ID='ground', SAWTOOTH=.FALSE.,
      XB=-0.251,22.851,16.249,16.551,9.026,12.628, /
&OBST ID='F-1 ground_110', SURF_ID='ground', SAWTOOTH=.FALSE.,
      XB=-5.951,-5.649,17.449,17.751,12.326,12.628, /
&OBST ID='F-1 ground_111', SURF_ID='ground', SAWTOOTH=.FALSE.,
      XB=-19.151,-16.449,-5.351,-5.049,9.026,12.028, /
&OBST ID='F-1 ground_112', SURF_ID='ground', SAWTOOTH=.FALSE.,
      XB=-17.051,-16.749,6.049,8.451,9.026,11.128, /
&OBST ID='F-1 ground_113', SURF_ID='ground', SAWTOOTH=.FALSE.,
      XB=-17.651,-16.149,-12.851,-12.549,9.026,11.428, /
&OBST ID='F-1 ground_114', SURF_ID='ground', SAWTOOTH=.FALSE.,
      XB=-18.551,-17.649,-0.851,-0.249,9.026,12.928, /
&OBST ID='F-1 ground_115', SURF_ID='ground', SAWTOOTH=.FALSE.,
      XB=-22.151,-19.749,-8.051,-7.749,9.026,12.628, /
&OBST ID='F-1 ground_116', SURF_ID='ground', SAWTOOTH=.FALSE.,
      XB=-16.451,-16.149,-11.051,-10.749,9.926,12.328, /
&OBST ID='F-1 ground_117', SURF_ID='ground', SAWTOOTH=.FALSE.,
      XB=-16.151,-15.849,-14.351,-14.049,9.026,10.528, /
&OBST ID='F-1 ground_118', SURF_ID='ground', SAWTOOTH=.FALSE.,
      XB=-22.151,22.851,-23.051,-19.449,9.026,12.628, /
&OBST ID='F-1 ground_119', SURF_ID='ground', SAWTOOTH=.FALSE.,
      XB=-19.451,-19.149,-5.351,-5.049,9.026,12.328, /
&OBST ID='F-1 ground_120', SURF_ID='ground', SAWTOOTH=.FALSE.,
      XB=-7.151,22.851,20.449,21.051,9.026,12.628, /
&OBST ID='F-1 ground_121', SURF_ID='ground', SAWTOOTH=.FALSE.,
      XB=-22.151,-19.149,0.649,2.151,9.026,12.628, /
&OBST ID='F-1 ground_122', SURF_ID='ground', SAWTOOTH=.FALSE.,
      XB=-22.151,-13.749,11.149,21.351,9.026,12.628, /
&OBST ID='F-1 ground_123', SURF_ID='ground', SAWTOOTH=.FALSE.,
      XB=-17.951,-17.649,4.849,6.351,9.026,11.728, /
&OBST ID='F-1 ground_124', SURF_ID='ground', SAWTOOTH=.FALSE.,
      XB=-18.851,-18.549,3.949,5.451,9.026,12.328, /
&OBST ID='F-1 ground_125', SURF_ID='ground', SAWTOOTH=.FALSE.,
      XB=-18.851,-18.549,-7.751,-7.449,9.026,12.028, /
&OBST ID='F-1 ground_126', SURF_ID='ground', SAWTOOTH=.FALSE.,
      XB=-17.351,-17.049,3.349,3.651,9.026,11.428, /
&OBST ID='F-1 ground_127', SURF_ID='ground', SAWTOOTH=.FALSE.,
      XB=-17.051,-16.749,4.249,4.551,9.026,11.428, /
&OBST ID='F-1 ground_128', SURF_ID='ground', SAWTOOTH=.FALSE.,
      XB=-16.751,-16.449,-13.151,-12.849,9.026,10.828, /
&OBST ID='F-1 ground_129', SURF_ID='ground', SAWTOOTH=.FALSE.,
      XB=-6.851,-5.649,19.849,20.151,9.326,12.628, /
&OBST ID='F-1 ground_130', SURF_ID='ground', SAWTOOTH=.FALSE.,
      XB=-17.351,-17.049,2.749,3.051,9.026,9.628, /
&OBST ID='F-1 ground_131', SURF_ID='ground', SAWTOOTH=.FALSE.,
      XB=-10.151,-8.949,20.449,20.751,9.026,12.628, /
&OBST ID='F-1 ground_132', SURF_ID='ground', SAWTOOTH=.FALSE.,
      XB=-13.751,-12.549,21.049,21.351,9.026,12.328, /
&OBST ID='F-1 ground_133', SURF_ID='ground', SAWTOOTH=.FALSE.,
      XB=-17.651,-17.049,-8.051,-7.749,9.026,12.028, /
&OBST ID='F-1 ground_134', SURF_ID='ground', SAWTOOTH=.FALSE.,
      XB=2.449,22.851,15.349,15.651,9.026,12.628, /
&OBST ID='F-1 ground_135', SURF_ID='ground', SAWTOOTH=.FALSE.,
      XB=-22.151,-17.949,-1.151,-0.849,9.026,12.628, /
&OBST ID='F-1 ground_136', SURF_ID='ground', SAWTOOTH=.FALSE.,
      XB=-7.151,-6.849,19.549,19.851,10.526,12.028, /
&OBST ID='F-1 ground_137', SURF_ID='ground', SAWTOOTH=.FALSE.,
      XB=-17.051,-16.449,-7.751,-7.449,9.026,10.828, /
&OBST ID='F-1 ground_138', SURF_ID='ground', SAWTOOTH=.FALSE.,
      XB=-10.751,-9.849,19.849,20.151,9.026,12.028, /
&OBST ID='F-1 ground_139', SURF_ID='ground', SAWTOOTH=.FALSE.,
      XB=-19.151,-17.349,3.349,3.651,9.026,12.328, /
&OBST ID='F-1 ground_140', SURF_ID='ground', SAWTOOTH=.FALSE.,
      XB=-5.951,-5.649,18.349,18.651,11.126,12.628, /
&OBST ID='F-1 ground_141', SURF_ID='ground', SAWTOOTH=.FALSE.,
      XB=-18.251,-17.949,-2.951,-1.149,9.026,11.428, /
&OBST ID='F-1 ground_142', SURF_ID='ground', SAWTOOTH=.FALSE.,
      XB=-17.951,-17.649,-12.851,-12.549,9.026,11.728, /
&OBST ID='F-1 ground_143', SURF_ID='ground', SAWTOOTH=.FALSE.,
      XB=-17.651,-17.349,5.449,5.751,9.026,11.428, /
&OBST ID='F-1 ground_144', SURF_ID='ground', SAWTOOTH=.FALSE.,
      XB=-11.351,-11.049,19.549,19.851,9.926,12.028, /
&OBST ID='F-1 ground_145', SURF_ID='ground', SAWTOOTH=.FALSE.,
      XB=-17.351,-17.049,-14.651,-14.349,9.026,11.728, /
&OBST ID='F-1 ground_146', SURF_ID='ground', SAWTOOTH=.FALSE.,
      XB=-18.551,-18.249,4.249,4.851,9.026,12.028, /
&OBST ID='F-1 ground_147', SURF_ID='ground', SAWTOOTH=.FALSE.,
      XB=-17.351,-16.749,-7.451,-5.649,9.026,10.828, /
&OBST ID='F-1 ground_148', SURF_ID='ground', SAWTOOTH=.FALSE.,
      XB=-9.851,-6.849,19.849,20.151,9.326,12.028, /
&OBST ID='F-1 ground_149', SURF_ID='ground', SAWTOOTH=.FALSE.,
      XB=-17.051,-16.749,3.949,4.251,9.026,10.528, /
&OBST ID='F-1 ground_150', SURF_ID='ground', SAWTOOTH=.FALSE.,
      XB=-16.151,-15.849,-14.651,-14.349,9.026,10.828, /
&OBST ID='F-1 ground_151', SURF_ID='ground', SAWTOOTH=.FALSE.,
      XB=10.849,22.851,-18.851,-14.349,9.026,12.628, /
&OBST ID='F-1 ground_152', SURF_ID='ground', SAWTOOTH=.FALSE.,
      XB=-17.951,-17.649,-1.151,-0.849,9.026,12.328, /
&OBST ID='F-1 ground_153', SURF_ID='ground', SAWTOOTH=.FALSE.,
      XB=-18.251,-16.749,4.549,4.851,9.026,11.728, /
&OBST ID='F-1 ground_154', SURF_ID='ground', SAWTOOTH=.FALSE.,
      XB=-17.351,-17.049,-14.351,-12.849,9.026,11.428, /
&OBST ID='F-1 ground_155', SURF_ID='ground', SAWTOOTH=.FALSE.,
      XB=-16.451,-16.149,-10.451,-10.149,10.826,12.328, /
&OBST ID='F-1 ground_156', SURF_ID='ground', SAWTOOTH=.FALSE.,
      XB=-22.151,-19.149,-2.951,-1.149,9.026,12.628, /
&OBST ID='F-1 ground_157', SURF_ID='ground', SAWTOOTH=.FALSE.,
      XB=-22.151,-17.349,2.749,3.051,9.026,12.628, /
&OBST ID='F-1 ground_158', SURF_ID='ground', SAWTOOTH=.FALSE.,
      XB=-22.151,-18.849,3.949,6.351,9.026,12.628, /
&OBST ID='F-1 ground_159', SURF_ID='ground', SAWTOOTH=.FALSE.,
      XB=-5.651,22.851,16.849,20.151,9.026,12.628, /
&OBST ID='F-1 ground_160', SURF_ID='ground', SAWTOOTH=.FALSE.,
      XB=-13.751,-12.549,19.849,20.751,9.026,12.328, /
&OBST ID='F-1 ground_161', SURF_ID='ground', SAWTOOTH=.FALSE.,
      XB=-18.251,-17.649,-7.451,-5.349,9.026,11.428, /
&OBST ID='F-1 ground_162', SURF_ID='ground', SAWTOOTH=.FALSE.,
      XB=-16.751,-16.149,-14.651,-14.349,9.026,11.128, /
&OBST ID='F-1 ground_163', SURF_ID='ground', SAWTOOTH=.FALSE.,
      XB=-19.151,-18.549,3.649,3.951,9.026,12.328, /
&OBST ID='F-1 ground_164', SURF_ID='ground', SAWTOOTH=.FALSE.,
      XB=-20.051,-16.449,-8.351,-8.049,9.026,12.328, /
&OBST ID='F-1 ground_165', SURF_ID='ground', SAWTOOTH=.FALSE.,
      XB=-22.151,-17.649,-3.251,-2.949,9.026,12.628, /
&OBST ID='F-1 ground_166', SURF_ID='ground', SAWTOOTH=.FALSE.,
      XB=-17.351,-17.049,-2.651,-1.749,9.026,10.528, /
&OBST ID='F-1 ground_167', SURF_ID='ground', SAWTOOTH=.FALSE.,
      XB=-17.951,-17.649,-2.951,-1.149,9.026,11.128, /
&OBST ID='F-1 ground_168', SURF_ID='ground', SAWTOOTH=.FALSE.,
      XB=-17.051,-16.449,5.749,6.051,9.026,11.128, /
&OBST ID='F-1 ground_169', SURF_ID='ground', SAWTOOTH=.FALSE.,
      XB=-17.951,-17.349,-14.351,-12.849,9.026,11.728, /
&OBST ID='F-1 ground_170', SURF_ID='ground', SAWTOOTH=.FALSE.,
      XB=-18.551,-17.049,3.949,4.251,9.026,12.028, /
&OBST ID='F-1 ground_171', SURF_ID='ground', SAWTOOTH=.FALSE.,
      XB=-17.651,-17.349,-7.451,-5.649,9.026,11.128, /
&OBST ID='F-1 ground_172', SURF_ID='ground', SAWTOOTH=.FALSE.,
      XB=-22.151,-19.149,3.049,3.951,9.026,12.628, /
&OBST ID='F-1 ground_173', SURF_ID='ground', SAWTOOTH=.FALSE.,
      XB=-16.751,-16.449,4.849,5.151,9.026,10.228, /
&OBST ID='F-1 ground_174', SURF_ID='ground', SAWTOOTH=.FALSE.,
      XB=-22.151,-20.649,-8.651,-8.349,9.026,12.628, /
&OBST ID='F-1 ground_175', SURF_ID='ground', SAWTOOTH=.FALSE.,
      XB=-6.251,-5.949,18.949,19.251,11.426,12.628, /
&OBST ID='F-1 ground_176', SURF_ID='ground', SAWTOOTH=.FALSE.,
      XB=-18.251,-17.649,4.249,4.551,9.026,11.728, /
&OBST ID='F-1 ground_177', SURF_ID='ground', SAWTOOTH=.FALSE.,
      XB=-12.551,22.851,21.049,21.351,9.026,12.628, /
&OBST ID='F-1 ground_178', SURF_ID='ground', SAWTOOTH=.FALSE.,
      XB=-0.851,22.851,16.549,16.851,9.026,12.628, /
&OBST ID='F-1 ground_179', SURF_ID='ground', SAWTOOTH=.FALSE.,
      XB=-22.151,-18.249,-14.351,-12.549,9.026,12.328, /
&OBST ID='F-1 ground_180', SURF_ID='ground', SAWTOOTH=.FALSE.,
      XB=-16.751,-16.149,6.049,8.451,9.026,10.828, /
&OBST ID='F-1 ground_181', SURF_ID='ground', SAWTOOTH=.FALSE.,
      XB=-12.551,-11.349,19.549,19.851,9.626,12.028, /
&OBST ID='F-1 ground_182', SURF_ID='ground', SAWTOOTH=.FALSE.,
      XB=-17.351,-17.049,6.349,8.451,9.026,11.428, /
! F-1 staircase.000, from voxelization (23 voxels, voxel size is 0.300), in 0.091 s
&OBST ID='F-1 staircase.000_0', SURF_ID='stair',
      XB=-8.346,-6.844,-4.313,-4.011,8.979,12.281, /
&OBST ID='F-1 staircase.000_1', SURF_ID='stair',
      XB=-6.846,-5.344,-4.313,-4.011,8.979,12.581, /
&OBST ID='F-1 staircase.000_2', SURF_ID='stair',
      XB=-8.346,-7.744,-5.513,-5.211,8.979,11.081, /
&OBST ID='F-1 staircase.000_3', SURF_ID='stair',
      XB=-8.346,-7.144,-4.913,-4.611,8.979,11.681, /
&OBST ID='F-1 staircase.000_4', SURF_ID='stair',
      XB=-8.046,-5.644,-6.113,-5.811,8.979,10.781, /
&OBST ID='F-1 staircase.000_5', SURF_ID='stair',
      XB=-8.046,-5.644,-5.813,-5.511,8.979,11.081, /
&OBST ID='F-1 staircase.000_6', SURF_ID='stair',
      XB=-7.446,-5.344,-5.213,-4.911,8.979,11.681, /
&OBST ID='F-1 staircase.000_7', SURF_ID='stair',
      XB=-6.846,-5.344,-4.613,-4.311,8.979,12.281, /
&OBST ID='F-1 staircase.000_8', SURF_ID='stair',
      XB=-8.646,-5.644,-7.313,-7.011,8.979,9.581, /
&OBST ID='F-1 staircase.000_9', SURF_ID='stair',
      XB=-8.646,-5.644,-7.613,-7.311,8.979,9.281, /
&OBST ID='F-1 staircase.000_10', SURF_ID='stair',
      XB=-8.346,-5.644,-6.413,-6.111,8.979,10.481, /
&OBST ID='F-1 staircase.000_11', SURF_ID='stair',
      XB=-7.146,-5.344,-4.913,-4.611,8.979,11.981, /
&OBST ID='F-1 staircase.000_12', SURF_ID='stair',
      XB=-8.646,-8.344,-6.413,-6.111,8.979,10.181, /
&OBST ID='F-1 staircase.000_13', SURF_ID='stair',
      XB=-8.346,-6.844,-4.613,-4.311,8.979,11.981, /
&OBST ID='F-1 staircase.000_14', SURF_ID='stair',
      XB=-8.346,-8.044,-6.113,-5.811,8.979,10.481, /
&OBST ID='F-1 staircase.000_15', SURF_ID='stair',
      XB=-8.646,-5.644,-7.013,-6.711,8.979,9.881, /
&OBST ID='F-1 staircase.000_16', SURF_ID='stair',
      XB=-7.746,-5.644,-5.513,-5.211,8.979,11.381, /
&OBST ID='F-1 staircase.000_17', SURF_ID='stair',
      XB=-8.346,-8.044,-5.813,-5.511,8.979,10.781, /
&OBST ID='F-1 staircase.000_18', SURF_ID='stair',
      XB=-6.546,-5.344,-4.013,-3.711,8.979,12.881, /
&OBST ID='F-1 staircase.000_19', SURF_ID='stair',
      XB=-8.346,-6.544,-3.713,-3.411,8.979,12.881, /