! Generated by BlenderFDS
! Fri, 17 Dec 2010 09:55:09
! Voxel Size: 0.125, 0.124, 0.120

&HEAD CHID='uni-build-s1', TITLE='University building, scenario 1' /

! Start of header file
!!! General configuration

&TIME T_END=900.0 /

&REAC ID='polyurethane', SOOT_YIELD=0.1875, CO_YIELD=0.02775,
      C=1.0, H=1.75, O=0.25, N=0.065,
      HEAT_OF_COMBUSTION=25300., IDEAL=.TRUE. /
      Gas phase reaction: polyurethane flexible foam (means) from
      Tewarson SFPE Handbook 3rd ed,
      SFPE handbook table 3-4.14, p. 3-112.

&MATL ID='Gypsum plaster', CONDUCTIVITY=0.48,
      SPECIFIC_HEAT=0.84, DENSITY=1440. /
      Thermo-physical properties of gypsum plaster.

&PROP ID='acme smoke detector', QUANTITY='CHAMBER OBSCURATION',
      LENGTH=1.8, ACTIVATION_OBSCURATION=3.28 /
      
&ISOF QUANTITY='TEMPERATURE', VALUE(1)=60. /
&ISOF QUANTITY='VISIBILITY', VALUE(1)=10. /
&BNDF QUANTITY='ADIABATIC SURFACE TEMPERATURE' /
! End of header file

!!! Boundary conditions defs

&SURF ID='Glass pane', RGB=0,204,201, TRANSPARENCY=0.200 /
&SURF ID='Burner', RGB=204,0,3, HRRPUA=300.00, TAU_Q=-230.63, FYI='1500 kW on 5 m2, fast fire' /
&SURF ID='Gypsum wall', RGB=184,187,137, MATL_ID='Gypsum plaster', THICKNESS=0.03 /

!!! Computational domain

! IJK=84,125,54 (567000 cells, actual size 0.250, 0.248, 0.240)
&MESH ID='Domain 0', XB=-10.500,10.500,-14.817,16.183,0.000,12.968, IJK=84,125,54 /
! IJK=84,125,54 (567000 cells, actual size 0.250, 0.248, 0.240)
&MESH ID='Domain -1', XB=-31.500,-10.500,-14.817,16.183,0.000,12.968, IJK=84,125,54 /
! IJK=84,125,54 (567000 cells, actual size 0.250, 0.248, 0.240)
&MESH ID='Domain +1', XB=10.500,31.500,-14.817,16.183,0.000,12.968, IJK=84,125,54 /

!!! Geometry

&OBST ID='Burning object', XB=6.500,7.500,-1.500,-0.500,0.000,1.000, SURF_ID='Burner',
      FYI='5 m2 on fire' /
! Start object
&OBST ID='Internal stairs', XB=-2.062,-0.062,7.874,10.230,4.142,4.263, SURF_ID='Gypsum wall' /
&OBST ID='Internal stairs_1', XB=-2.062,-0.062,9.238,9.610,8.225,8.585, SURF_ID='Gypsum wall' /
&OBST ID='Internal stairs_2', XB=-2.062,-0.062,9.486,10.230,8.105,8.225, SURF_ID='Gypsum wall' /
&OBST ID='Internal stairs_3', XB=-2.062,-0.062,9.610,9.858,7.985,8.105, SURF_ID='Gypsum wall' /
&OBST ID='Internal stairs_4', XB=-2.062,-0.062,9.610,9.982,8.225,8.345, SURF_ID='Gypsum wall' /
&OBST ID='Internal stairs_5', XB=-2.062,-0.062,9.734,9.982,4.263,4.503, SURF_ID='Gypsum wall' /
&OBST ID='Internal stairs_6', XB=-2.062,-0.062,9.734,10.602,4.022,4.142, SURF_ID='Gypsum wall' /
&OBST ID='Internal stairs_7', XB=-2.062,-0.062,9.858,10.602,7.865,8.105, SURF_ID='Gypsum wall' /
&OBST ID='Internal stairs_8', XB=-2.062,-0.062,9.982,10.850,3.902,4.022, SURF_ID='Gypsum wall' /
&OBST ID='Internal stairs_9', XB=-2.062,-0.062,10.106,10.850,3.782,3.902, SURF_ID='Gypsum wall' /
&OBST ID='Internal stairs_10', XB=-2.062,-0.062,10.106,10.850,7.745,7.865, SURF_ID='Gypsum wall' /
&OBST ID='Internal stairs_11', XB=-2.062,-0.062,10.230,10.850,7.625,7.745, SURF_ID='Gypsum wall' /
&OBST ID='Internal stairs_12', XB=-2.062,-0.062,10.354,11.098,3.662,3.782, SURF_ID='Gypsum wall' /
&OBST ID='Internal stairs_13', XB=-2.062,-0.062,10.478,10.850,7.505,7.625, SURF_ID='Gypsum wall' /
&OBST ID='Internal stairs_14', XB=-2.062,-0.062,10.602,10.726,3.542,3.662, SURF_ID='Gypsum wall' /
&OBST ID='Internal stairs_15', XB=-2.062,-0.062,10.726,10.850,7.384,7.505, SURF_ID='Gypsum wall' /
&OBST ID='Internal stairs_16', XB=-2.062,-0.062,10.726,11.470,3.422,3.662, SURF_ID='Gypsum wall' /
&OBST ID='Internal stairs_17', XB=-2.062,-0.062,10.850,11.098,7.264,7.745, SURF_ID='Gypsum wall' /
&OBST ID='Internal stairs_18', XB=-2.062,-0.062,10.974,11.718,3.302,3.422, SURF_ID='Gypsum wall' /
&OBST ID='Internal stairs_19', XB=-2.062,-0.062,11.098,11.470,7.384,7.505, SURF_ID='Gypsum wall' /
&OBST ID='Internal stairs_20', XB=-2.062,-0.062,11.098,11.718,7.144,7.384, SURF_ID='Gypsum wall' /
&OBST ID='Internal stairs_21', XB=-2.062,-0.062,11.222,11.346,3.182,3.302, SURF_ID='Gypsum wall' /
&OBST ID='Internal stairs_22', XB=-2.062,-0.062,11.222,11.966,7.024,7.144, SURF_ID='Gypsum wall' /
&OBST ID='Internal stairs_23', XB=-2.062,-0.062,11.346,11.966,3.062,3.302, SURF_ID='Gypsum wall' /
&OBST ID='Internal stairs_24', XB=-2.062,-0.062,11.470,12.338,6.904,7.024, SURF_ID='Gypsum wall' /
&OBST ID='Internal stairs_25', XB=-2.062,-0.062,11.594,12.338,2.942,3.062, SURF_ID='Gypsum wall' /
&OBST ID='Internal stairs_26', XB=-2.062,-0.062,11.718,12.586,2.822,2.942, SURF_ID='Gypsum wall' /
&OBST ID='Internal stairs_27', XB=-2.062,-0.062,11.718,12.586,6.784,6.904, SURF_ID='Gypsum wall' /
&OBST ID='Internal stairs_28', XB=-2.062,-0.062,11.842,12.586,6.664,6.784, SURF_ID='Gypsum wall' /
&OBST ID='Internal stairs_29', XB=-2.062,-0.062,11.966,12.214,2.702,2.822, SURF_ID='Gypsum wall' /
&OBST ID='Internal stairs_30', XB=-2.062,-0.062,12.090,12.834,6.544,6.664, SURF_ID='Gypsum wall' /
&OBST ID='Internal stairs_31', XB=-2.062,-0.062,12.214,12.834,2.582,2.822, SURF_ID='Gypsum wall' /
&OBST ID='Internal stairs_32', XB=-2.062,-0.062,12.338,12.462,6.424,6.544, SURF_ID='Gypsum wall' /
&OBST ID='Internal stairs_33', XB=-2.062,-0.062,12.338,13.206,2.461,2.582, SURF_ID='Gypsum wall' /
&OBST ID='Internal stairs_34', XB=-2.062,-0.062,12.462,12.710,6.304,6.544, SURF_ID='Gypsum wall' /
&OBST ID='Internal stairs_35', XB=-2.062,-0.062,12.586,13.454,2.341,2.461, SURF_ID='Gypsum wall' /
&OBST ID='Internal stairs_36', XB=-2.062,-0.062,12.710,13.082,6.184,6.544, SURF_ID='Gypsum wall' /
&OBST ID='Internal stairs_37', XB=-2.062,-0.062,12.834,13.454,2.221,2.341, SURF_ID='Gypsum wall' /
&OBST ID='Internal stairs_38', XB=-2.062,-0.062,12.958,13.082,2.101,2.221, SURF_ID='Gypsum wall' /
&OBST ID='Internal stairs_39', XB=-2.062,2.062,7.874,9.734,4.263,4.503, SURF_ID='Gypsum wall' /
&OBST ID='Internal stairs_40', XB=-2.062,2.062,13.082,15.314,1.981,2.221, SURF_ID='Gypsum wall' /
&OBST ID='Internal stairs_41', XB=-2.062,2.062,13.082,15.314,6.184,6.544, SURF_ID='Gypsum wall' /
&OBST ID='Internal stairs_42', XB=-0.062,2.062,7.874,9.734,4.142,4.263, SURF_ID='Gypsum wall' /
&OBST ID='Internal stairs_43', XB=0.062,2.062,9.610,10.106,-0.060,0.060, SURF_ID='Gypsum wall' /
&OBST ID='Internal stairs_44', XB=0.062,2.062,9.610,10.354,0.060,0.180, SURF_ID='Gypsum wall' /
&OBST ID='Internal stairs_45', XB=0.062,2.062,9.734,9.982,4.142,4.263, SURF_ID='Gypsum wall' /
&OBST ID='Internal stairs_46', XB=0.062,2.062,9.734,10.230,4.263,4.503, SURF_ID='Gypsum wall' /
&OBST ID='Internal stairs_47', XB=0.062,2.062,9.858,10.478,0.180,0.300, SURF_ID='Gypsum wall' /
&OBST ID='Internal stairs_48', XB=0.062,2.062,9.858,10.602,4.503,4.623, SURF_ID='Gypsum wall' /
&OBST ID='Internal stairs_49', XB=0.062,2.062,9.858,10.726,0.300,0.420, SURF_ID='Gypsum wall' /
&OBST ID='Internal stairs_50', XB=0.062,2.062,10.230,10.478,4.383,4.503, SURF_ID='Gypsum wall' /
&OBST ID='Internal stairs_51', XB=0.062,2.062,10.230,10.850,4.623,4.863, SURF_ID='Gypsum wall' /
&OBST ID='Internal stairs_52', XB=0.062,2.062,10.230,10.974,0.420,0.540, SURF_ID='Gypsum wall' /
&OBST ID='Internal stairs_53', XB=0.062,2.062,10.478,10.850,4.863,4.983, SURF_ID='Gypsum wall' /
&OBST ID='Internal stairs_54', XB=0.062,2.062,10.478,11.098,0.540,0.660, SURF_ID='Gypsum wall' /
&OBST ID='Internal stairs_55', XB=0.062,2.062,10.478,11.346,0.660,0.780, SURF_ID='Gypsum wall' /
&OBST ID='Internal stairs_56', XB=0.062,2.062,10.726,11.470,4.983,5.103, SURF_ID='Gypsum wall' /
&OBST ID='Internal stairs_57', XB=0.062,2.062,10.726,11.594,0.780,0.901, SURF_ID='Gypsum wall' /
&OBST ID='Internal stairs_58', XB=0.062,2.062,10.850,11.098,4.743,4.983, SURF_ID='Gypsum wall' /
&OBST ID='Internal stairs_59', XB=0.062,2.062,11.098,11.222,4.863,4.983, SURF_ID='Gypsum wall' /
&OBST ID='Internal stairs_60', XB=0.062,2.062,11.098,11.718,0.901,1.021, SURF_ID='Gypsum wall' /
&OBST ID='Internal stairs_61', XB=0.062,2.062,11.098,11.718,5.103,5.343, SURF_ID='Gypsum wall' /
&OBST ID='Internal stairs_62', XB=0.062,2.062,11.346,11.966,1.021,1.141, SURF_ID='Gypsum wall' /
&OBST ID='Internal stairs_63', XB=0.062,2.062,11.346,12.090,5.343,5.463, SURF_ID='Gypsum wall' /
&OBST ID='Internal stairs_64', XB=0.062,2.062,11.346,12.214,1.141,1.261, SURF_ID='Gypsum wall' /
&OBST ID='Internal stairs_65', XB=0.062,2.062,11.594,12.338,1.261,1.381, SURF_ID='Gypsum wall' /
&OBST ID='Internal stairs_66', XB=0.062,2.062,11.594,12.338,5.463,5.583, SURF_ID='Gypsum wall' /
&OBST ID='Internal stairs_67', XB=0.062,2.062,11.594,12.462,5.583,5.703, SURF_ID='Gypsum wall' /
&OBST ID='Internal stairs_68', XB=0.062,2.062,11.718,11.842,5.223,5.343, SURF_ID='Gypsum wall' /
&OBST ID='Internal stairs_69', XB=0.062,2.062,11.966,12.586,1.381,1.501, SURF_ID='Gypsum wall' /
&OBST ID='Internal stairs_70', XB=0.062,2.062,11.966,12.710,5.703,5.824, SURF_ID='Gypsum wall' /
&OBST ID='Internal stairs_71', XB=0.062,2.062,11.966,12.834,1.501,1.621, SURF_ID='Gypsum wall' /
&OBST ID='Internal stairs_72', XB=0.062,2.062,12.214,12.958,1.621,1.741, SURF_ID='Gypsum wall' /
&OBST ID='Internal stairs_73', XB=0.062,2.062,12.214,12.958,5.824,6.064, SURF_ID='Gypsum wall' /
&OBST ID='Internal stairs_74', XB=0.062,2.062,12.462,13.206,1.741,1.861, SURF_ID='Gypsum wall' /
&OBST ID='Internal stairs_75', XB=0.062,2.062,12.462,13.330,1.861,1.981, SURF_ID='Gypsum wall' /
&OBST ID='Internal stairs_76', XB=0.062,2.062,12.462,13.330,6.064,6.184, SURF_ID='Gypsum wall' /
&OBST ID='Internal stairs_77', XB=0.062,2.062,12.834,13.082,1.981,2.101, SURF_ID='Gypsum wall' /
&OBST ID='Internal stairs_78', XB=0.062,2.062,12.834,13.082,6.184,6.304, SURF_ID='Gypsum wall' /
&OBST ID='Internal stairs_79', XB=0.062,2.062,12.958,13.082,5.944,6.064, SURF_ID='Gypsum wall' /
! End object
! Start object
&OBST ID='External stairs', XB=-35.562,-33.688,1.426,1.922,0.060,0.300 /
&OBST ID='External stairs_1', XB=-35.562,-33.688,1.798,2.170,0.300,0.420 /
&OBST ID='External stairs_2', XB=-35.562,-33.688,2.046,2.294,0.420,0.660 /
&OBST ID='External stairs_3', XB=-35.562,-33.688,2.294,2.418,0.420,0.540 /
&OBST ID='External stairs_4', XB=-35.562,-33.688,2.294,2.790,0.540,0.780 /
&OBST ID='External stairs_5', XB=-35.562,-33.688,2.542,3.038,0.780,0.901 /
&OBST ID='External stairs_6', XB=-35.562,-33.688,2.914,3.162,0.901,1.141 /
&OBST ID='External stairs_7', XB=-35.562,-33.688,3.162,3.286,0.901,1.021 /
&OBST ID='External stairs_8', XB=-35.562,-33.688,3.162,3.534,1.021,1.261 /
&OBST ID='External stairs_9', XB=-35.562,-33.688,3.410,3.906,1.261,1.381 /
&OBST ID='External stairs_10', XB=-35.562,-33.688,3.782,4.030,1.381,1.621 /
&OBST ID='External stairs_11', XB=-35.562,-33.688,4.030,4.154,1.381,1.501 /
&OBST ID='External stairs_12', XB=-35.562,-33.688,4.030,4.402,1.501,1.741 /
&OBST ID='External stairs_13', XB=-35.562,-33.688,4.278,4.650,1.741,1.861 /
&OBST ID='External stairs_14', XB=-35.562,-33.688,4.526,5.022,1.861,1.981 /
&OBST ID='External stairs_15', XB=-35.562,-33.688,4.526,5.146,1.981,2.101 /
&OBST ID='External stairs_16', XB=-35.562,-33.688,4.898,5.146,2.101,2.221 /
&OBST ID='External stairs_17', XB=-35.562,-31.562,5.146,6.138,1.981,2.221 /
&OBST ID='External stairs_18', XB=-35.438,-31.688,6.138,6.262,1.981,2.221 /
&OBST ID='External stairs_19', XB=-35.312,-35.188,6.262,6.386,1.981,2.221 /
&OBST ID='External stairs_20', XB=-35.188,-35.062,6.262,6.510,1.981,2.221 /
&OBST ID='External stairs_21', XB=-35.062,-32.062,6.262,6.634,1.981,2.221 /
&OBST ID='External stairs_22', XB=-34.938,-34.688,6.634,6.758,1.981,2.221 /
&OBST ID='External stairs_23', XB=-34.812,-34.688,6.758,6.882,1.981,2.221 /
&OBST ID='External stairs_24', XB=-34.688,-32.438,6.634,7.006,1.981,2.221 /
&OBST ID='External stairs_25', XB=-33.438,-31.562,1.054,1.302,4.263,4.503 /
&OBST ID='External stairs_26', XB=-33.438,-31.562,1.178,1.674,4.142,4.263 /
&OBST ID='External stairs_27', XB=-33.438,-31.562,1.426,1.922,3.902,4.142 /
&OBST ID='External stairs_28', XB=-33.438,-31.562,1.798,2.170,3.782,3.902 /
&OBST ID='External stairs_29', XB=-33.438,-31.562,1.922,2.170,3.902,4.022 /
&OBST ID='External stairs_30', XB=-33.438,-31.562,2.046,2.418,3.662,3.782 /
&OBST ID='External stairs_31', XB=-33.438,-31.562,2.294,2.790,3.542,3.662 /
&OBST ID='External stairs_32', XB=-33.438,-31.562,2.294,3.038,3.422,3.542 /
&OBST ID='External stairs_33', XB=-33.438,-31.562,2.542,3.038,3.302,3.422 /
&OBST ID='External stairs_34', XB=-33.438,-31.562,2.914,3.286,3.182,3.302 /
&OBST ID='External stairs_35', XB=-33.438,-31.562,3.162,3.534,2.942,3.182 /
&OBST ID='External stairs_36', XB=-33.438,-31.562,3.410,3.906,2.822,2.942 /
&OBST ID='External stairs_37', XB=-33.438,-31.562,3.534,3.906,2.942,3.062 /
&OBST ID='External stairs_38', XB=-33.438,-31.562,3.782,4.154,2.702,2.822 /
&OBST ID='External stairs_39', XB=-33.438,-31.562,4.030,4.402,2.582,2.702 /
&OBST ID='External stairs_40', XB=-33.438,-31.562,4.030,4.650,2.461,2.582 /
&OBST ID='External stairs_41', XB=-33.438,-31.562,4.278,4.650,2.341,2.461 /
&OBST ID='External stairs_42', XB=-33.438,-31.562,4.526,5.022,2.221,2.341 /
&OBST ID='External stairs_43', XB=-33.438,-31.562,4.898,5.146,1.981,2.221 /
&OBST ID='External stairs_44', XB=-33.438,-30.188,-0.062,1.054,4.263,4.503 /
&OBST ID='External stairs_45', XB=-33.312,-33.188,-0.186,-0.062,4.263,4.503 /
&OBST ID='External stairs_46', XB=-33.188,-32.438,-0.310,-0.062,4.263,4.503 /
&OBST ID='External stairs_47', XB=-33.062,-32.938,-0.434,-0.310,4.263,4.503 /
&OBST ID='External stairs_48', XB=-32.938,-32.688,-0.558,-0.310,4.263,4.503 /
&OBST ID='External stairs_49', XB=-32.812,-32.688,-0.682,-0.558,4.263,4.503 /
&OBST ID='External stairs_50', XB=-32.688,-32.438,-0.806,-0.310,4.263,4.503 /
&OBST ID='External stairs_51', XB=-32.562,-32.438,-0.930,-0.806,4.263,4.503 /
&OBST ID='External stairs_52', XB=-32.438,-32.312,6.758,6.882,1.981,2.221 /
&OBST ID='External stairs_53', XB=-32.438,-32.188,6.634,6.758,1.981,2.221 /
&OBST ID='External stairs_54', XB=-32.438,-30.188,-1.054,-0.062,4.263,4.503 /
&OBST ID='External stairs_55', XB=-32.062,-31.938,6.386,6.510,1.981,2.221 /
&OBST ID='External stairs_56', XB=-32.062,-31.812,6.262,6.386,1.981,2.221 /
&OBST ID='External stairs_57', XB=30.188,33.062,-1.054,-0.558,4.263,4.503 /
&OBST ID='External stairs_58', XB=30.188,33.562,-0.558,-0.062,4.263,4.503 /
&OBST ID='External stairs_59', XB=30.188,34.062,-0.062,1.054,4.263,4.503 /
&OBST ID='External stairs_60', XB=32.188,34.062,1.054,1.302,4.263,4.503 /
&OBST ID='External stairs_61', XB=32.188,34.062,1.178,1.674,4.142,4.263 /
&OBST ID='External stairs_62', XB=32.188,34.062,1.426,1.922,4.022,4.142 /
&OBST ID='External stairs_63', XB=32.188,34.062,1.426,2.170,3.902,4.022 /
&OBST ID='External stairs_64', XB=32.188,34.062,1.798,2.170,3.782,3.902 /
&OBST ID='External stairs_65', XB=32.188,34.062,2.046,2.418,3.662,3.782 /
&OBST ID='External stairs_66', XB=32.188,34.062,2.294,2.790,3.542,3.662 /
&OBST ID='External stairs_67', XB=32.188,34.062,2.294,3.038,3.422,3.542 /
&OBST ID='External stairs_68', XB=32.188,34.062,2.542,3.038,3.302,3.422 /
&OBST ID='External stairs_69', XB=32.188,34.062,2.914,3.286,3.182,3.302 /
&OBST ID='External stairs_70', XB=32.188,34.062,3.162,3.410,2.942,3.182 /
&OBST ID='External stairs_71', XB=32.188,34.062,3.410,3.534,3.062,3.182 /
&OBST ID='External stairs_72', XB=32.188,34.062,3.410,3.906,2.822,3.062 /
&OBST ID='External stairs_73', XB=32.188,34.062,3.782,4.154,2.702,2.822 /
&OBST ID='External stairs_74', XB=32.188,34.062,4.030,4.278,2.461,2.582 /
&OBST ID='External stairs_75', XB=32.188,34.062,4.030,4.402,2.582,2.702 /
&OBST ID='External stairs_76', XB=32.188,34.062,4.278,4.650,2.341,2.582 /
&OBST ID='External stairs_77', XB=32.188,34.062,4.526,6.014,2.221,2.341 /
&OBST ID='External stairs_78', XB=32.188,34.062,5.890,6.386,2.101,2.221 /
&OBST ID='External stairs_79', XB=32.188,34.062,5.890,6.634,1.981,2.101 /
&OBST ID='External stairs_80', XB=32.188,34.062,6.262,6.634,1.861,1.981 /
&OBST ID='External stairs_81', XB=32.188,34.062,6.510,7.006,1.741,1.861 /
&OBST ID='External stairs_82', XB=32.188,34.062,6.882,7.254,1.501,1.741 /
&OBST ID='External stairs_83', XB=32.188,34.062,7.130,7.254,1.381,1.501 /
&OBST ID='External stairs_84', XB=32.188,34.062,7.254,7.502,1.381,1.621 /
&OBST ID='External stairs_85', XB=32.188,34.062,7.378,7.874,1.261,1.381 /
&OBST ID='External stairs_86', XB=32.188,34.062,7.750,8.122,1.021,1.261 /
&OBST ID='External stairs_87', XB=32.188,34.062,7.998,8.122,0.901,1.021 /
&OBST ID='External stairs_88', XB=32.188,34.062,8.122,8.494,0.901,1.141 /
&OBST ID='External stairs_89', XB=32.188,34.062,8.370,8.742,0.780,0.901 /
&OBST ID='External stairs_90', XB=32.188,34.062,8.618,8.866,0.540,0.780 /
&OBST ID='External stairs_91', XB=32.188,34.062,8.866,8.990,0.660,0.780 /
&OBST ID='External stairs_92', XB=32.188,34.062,8.866,9.362,0.420,0.660 /
&OBST ID='External stairs_93', XB=32.188,34.062,9.238,9.610,0.300,0.420 /
&OBST ID='External stairs_94', XB=32.188,34.062,9.486,9.982,0.180,0.300 /
&OBST ID='External stairs_95', XB=32.188,34.062,9.486,10.230,0.060,0.180 /
&OBST ID='External stairs_96', XB=32.188,34.062,9.858,10.230,-0.060,0.060 /
&OBST ID='External stairs_97', XB=33.062,33.188,-0.930,-0.806,4.263,4.503 /
&OBST ID='External stairs_98', XB=33.062,33.312,-0.806,-0.558,4.263,4.503 /
&OBST ID='External stairs_99', XB=33.312,33.438,-0.682,-0.558,4.263,4.503 /
&OBST ID='External stairs_100', XB=33.562,33.688,-0.434,-0.310,4.263,4.503 /
&OBST ID='External stairs_101', XB=33.562,33.812,-0.310,-0.062,4.263,4.503 /
&OBST ID='External stairs_102', XB=33.812,33.938,-0.186,-0.062,4.263,4.503 /
! End object
! Start object
&OBST ID='Panels transparent', XB=-1.562,-1.438,-1.426,1.426,9.546,12.187, SURF_ID='Glass pane' /
&OBST ID='Panels transparent_1', XB=-1.562,1.562,-1.550,-1.426,9.546,12.187, SURF_ID='Glass pane' /
&OBST ID='Panels transparent_2', XB=-1.562,1.562,1.426,1.550,9.546,12.187, SURF_ID='Glass pane' /
&OBST ID='Panels transparent_3', XB=-1.438,1.438,-1.550,-1.426,12.187,12.307, SURF_ID='Glass pane' /
&OBST ID='Panels transparent_4', XB=-1.438,1.438,1.426,1.550,12.187,12.307, SURF_ID='Glass pane' /
&OBST ID='Panels transparent_5', XB=1.438,1.562,-1.426,1.426,9.546,12.187, SURF_ID='Glass pane' /
! End object
! Start object
&OBST ID='Fire doors', XB=-1.062,1.062,4.402,4.650,-0.060,2.221, SURF_ID='Gypsum wall',
      FYI='always closed' /
&OBST ID='Fire doors_1', XB=-1.062,1.062,4.402,4.650,4.383,6.664, SURF_ID='Gypsum wall',
      FYI='always closed' /
&OBST ID='Fire doors_2', XB=-1.062,1.062,7.750,7.998,-0.060,2.221, SURF_ID='Gypsum wall',
      FYI='always closed' /
&OBST ID='Fire doors_3', XB=-1.062,1.062,7.750,7.998,4.383,6.664, SURF_ID='Gypsum wall',
      FYI='always closed' /
! End object
! Start object
&OBST ID='Walls', XB=-30.312,-30.188,-13.826,-11.966,1.141,3.062, SURF_ID='Gypsum wall' /
&OBST ID='Walls_1', XB=-30.312,-30.188,-13.578,-11.966,-0.060,1.141, SURF_ID='Gypsum wall' /
&OBST ID='Walls_2', XB=-30.312,-30.188,-13.578,-11.966,3.062,3.182, SURF_ID='Gypsum wall' /
&OBST ID='Walls_3', XB=-30.312,-30.188,-13.578,-11.966,5.583,7.384, SURF_ID='Gypsum wall' /
&OBST ID='Walls_4', XB=-30.312,-30.188,-13.578,-3.038,4.383,5.583, SURF_ID='Gypsum wall' /
&OBST ID='Walls_5', XB=-30.312,-30.188,-13.578,-2.418,7.384,7.625, SURF_ID='Gypsum wall' /
&OBST ID='Walls_6', XB=-30.312,-30.188,-11.966,-2.046,2.942,3.182, SURF_ID='Gypsum wall' /
&OBST ID='Walls_7', XB=-30.312,-30.188,-7.998,-6.882,1.141,2.942, SURF_ID='Gypsum wall' /
&OBST ID='Walls_8', XB=-30.312,-30.188,-7.998,-6.882,5.583,7.384, SURF_ID='Gypsum wall' /
&OBST ID='Walls_9', XB=-30.312,-30.188,-7.998,-3.038,-0.060,1.141, SURF_ID='Gypsum wall' /
&OBST ID='Walls_10', XB=-30.312,-30.188,-3.038,-2.418,6.544,7.384, SURF_ID='Gypsum wall' /
&OBST ID='Walls_11', XB=-30.312,-30.188,-3.038,-2.046,2.101,2.942, SURF_ID='Gypsum wall' /
&OBST ID='Walls_12', XB=-30.312,-30.188,-3.038,-0.930,4.383,6.544, SURF_ID='Gypsum wall' /
&OBST ID='Walls_13', XB=-30.312,-30.188,-3.038,3.038,-0.060,2.101, SURF_ID='Gypsum wall' /
&OBST ID='Walls_14', XB=-30.312,-30.188,-1.798,1.798,2.101,3.182, SURF_ID='Gypsum wall' /
&OBST ID='Walls_15', XB=-30.312,-30.188,-1.302,-0.930,6.544,7.625, SURF_ID='Gypsum wall' /
&OBST ID='Walls_16', XB=-30.312,-30.188,-0.930,0.930,7.384,7.625, SURF_ID='Gypsum wall' /
&OBST ID='Walls_17', XB=-30.312,-30.188,0.930,1.302,4.383,7.625, SURF_ID='Gypsum wall' /
&OBST ID='Walls_18', XB=-30.312,-30.188,2.046,3.038,2.101,3.182, SURF_ID='Gypsum wall' /
&OBST ID='Walls_19', XB=-30.312,-30.188,2.418,3.038,5.583,7.384, SURF_ID='Gypsum wall' /
&OBST ID='Walls_20', XB=-30.312,-30.188,2.418,11.966,4.383,5.583, SURF_ID='Gypsum wall' /
&OBST ID='Walls_21', XB=-30.312,-30.188,2.418,11.966,7.384,7.625, SURF_ID='Gypsum wall' /
&OBST ID='Walls_22', XB=-30.312,-30.188,3.038,6.882,2.942,3.182, SURF_ID='Gypsum wall' /
&OBST ID='Walls_23', XB=-30.312,-30.188,3.038,8.122,-0.060,1.141, SURF_ID='Gypsum wall' /
&OBST ID='Walls_24', XB=-30.312,-30.188,6.882,8.122,1.141,3.182, SURF_ID='Gypsum wall' /
&OBST ID='Walls_25', XB=-30.312,-30.188,6.882,8.122,5.583,7.384, SURF_ID='Gypsum wall' /
&OBST ID='Walls_26', XB=-30.312,-30.188,8.122,13.702,2.942,3.182, SURF_ID='Gypsum wall' /
&OBST ID='Walls_27', XB=-30.312,-30.188,11.966,13.826,-0.060,2.942, SURF_ID='Gypsum wall' /
&OBST ID='Walls_28', XB=-30.312,-30.188,11.966,13.826,4.383,7.625, SURF_ID='Gypsum wall' /
&OBST ID='Walls_29', XB=-30.312,-29.688,-2.170,-1.302,6.544,7.625, SURF_ID='Gypsum wall' /
&OBST ID='Walls_30', XB=-30.312,-29.688,1.302,2.170,6.544,7.625, SURF_ID='Gypsum wall' /
&OBST ID='Walls_31', XB=-30.312,-29.688,1.302,2.418,4.383,6.544, SURF_ID='Gypsum wall' /
&OBST ID='Walls_32', XB=-30.312,-29.438,-13.826,-13.578,5.583,7.384, SURF_ID='Gypsum wall' /
&OBST ID='Walls_33', XB=-30.312,-25.562,13.702,13.826,2.942,3.182, SURF_ID='Gypsum wall' /
&OBST ID='Walls_34', XB=-30.312,-24.312,-2.046,-1.798,2.101,3.182, SURF_ID='Gypsum wall' /
&OBST ID='Walls_35', XB=-30.312,-24.312,1.798,2.046,2.101,3.182, SURF_ID='Gypsum wall' /
&OBST ID='Walls_36', XB=-30.312,-18.812,-2.294,-2.170,6.544,7.625, SURF_ID='Gypsum wall' /
&OBST ID='Walls_37', XB=-30.312,-18.812,2.170,2.418,6.544,7.625, SURF_ID='Gypsum wall' /
&OBST ID='Walls_38', XB=-30.312,-18.688,-2.418,-2.294,6.544,7.625, SURF_ID='Gypsum wall' /
&OBST ID='Walls_39', XB=-30.312,-1.438,-13.826,-13.578,-0.060,1.141, SURF_ID='Gypsum wall' /
&OBST ID='Walls_40', XB=-30.312,-0.562,-13.826,-13.578,7.384,7.625, SURF_ID='Gypsum wall' /
&OBST ID='Walls_41', XB=-30.312,30.312,-13.826,-13.578,3.062,3.182, SURF_ID='Gypsum wall' /
&OBST ID='Walls_42', XB=-30.312,30.312,-13.826,-13.578,4.383,5.583, SURF_ID='Gypsum wall' /
&OBST ID='Walls_43', XB=-30.188,-29.688,-2.418,-1.302,4.383,6.544, SURF_ID='Gypsum wall' /
&OBST ID='Walls_44', XB=-30.188,-29.688,-2.046,-1.798,-0.060,2.101, SURF_ID='Gypsum wall' /
&OBST ID='Walls_45', XB=-30.188,-29.688,1.798,2.046,-0.060,2.101, SURF_ID='Gypsum wall' /
&OBST ID='Walls_46', XB=-30.188,-29.438,-13.826,-13.578,1.141,2.942, SURF_ID='Gypsum wall' /
&OBST ID='Walls_47', XB=-30.188,-29.438,13.702,13.826,1.141,2.942, SURF_ID='Gypsum wall' /
&OBST ID='Walls_48', XB=-30.188,-29.438,13.702,13.826,5.583,7.384, SURF_ID='Gypsum wall' /
&OBST ID='Walls_49', XB=-30.188,-25.562,13.702,13.826,-0.060,1.141, SURF_ID='Gypsum wall' /
&OBST ID='Walls_50', XB=-30.188,-25.562,13.702,13.826,7.384,7.625, SURF_ID='Gypsum wall' /
&OBST ID='Walls_51', XB=-30.188,-20.562,-13.826,-13.578,2.942,3.062, SURF_ID='Gypsum wall' /
&OBST ID='Walls_52', XB=-30.188,-17.562,13.702,13.826,4.383,5.583, SURF_ID='Gypsum wall' /
&OBST ID='Walls_53', XB=-28.938,-24.312,-2.046,-1.798,-0.060,2.101, SURF_ID='Gypsum wall' /
&OBST ID='Walls_54', XB=-28.938,-24.312,1.798,2.046,-0.060,2.101, SURF_ID='Gypsum wall' /
&OBST ID='Walls_55', XB=-28.562,-18.812,-2.294,-2.170,4.383,6.544, SURF_ID='Gypsum wall' /
&OBST ID='Walls_56', XB=-28.562,-18.812,2.170,2.418,4.383,6.544, SURF_ID='Gypsum wall' /
&OBST ID='Walls_57', XB=-28.562,-18.688,-2.418,-2.294,4.383,6.544, SURF_ID='Gypsum wall' /
&OBST ID='Walls_58', XB=-25.562,-24.438,-13.826,-13.578,1.141,2.942, SURF_ID='Gypsum wall' /
&OBST ID='Walls_59', XB=-25.562,-24.438,-13.826,-13.578,5.583,7.384, SURF_ID='Gypsum wall' /
&OBST ID='Walls_60', XB=-25.562,-24.438,13.702,13.826,-0.060,3.182, SURF_ID='Gypsum wall' /
&OBST ID='Walls_61', XB=-25.562,-24.438,13.702,13.826,5.583,7.625, SURF_ID='Gypsum wall' /
&OBST ID='Walls_62', XB=-24.562,-24.312,-1.798,1.798,-0.060,3.182, SURF_ID='Gypsum wall' /
&OBST ID='Walls_63', XB=-24.438,-20.562,13.702,13.826,2.942,3.182, SURF_ID='Gypsum wall' /
&OBST ID='Walls_64', XB=-24.438,-20.312,13.702,13.826,-0.060,1.141, SURF_ID='Gypsum wall' /
&OBST ID='Walls_65', XB=-24.438,-17.562,13.702,13.826,7.384,7.625, SURF_ID='Gypsum wall' /
&OBST ID='Walls_66', XB=-24.312,-21.812,-0.062,0.062,-0.060,3.182, SURF_ID='Gypsum wall' /
&OBST ID='Walls_67', XB=-22.062,-21.812,-2.418,-0.930,-0.060,2.101, SURF_ID='Gypsum wall' /
&OBST ID='Walls_68', XB=-22.062,-21.812,-2.170,-0.062,2.101,3.182, SURF_ID='Gypsum wall' /
&OBST ID='Walls_69', XB=-22.062,-21.812,-0.186,-0.062,-0.060,2.101, SURF_ID='Gypsum wall' /
&OBST ID='Walls_70', XB=-22.062,-21.812,0.062,0.186,-0.060,2.101, SURF_ID='Gypsum wall' /
&OBST ID='Walls_71', XB=-22.062,-21.812,0.062,2.170,2.101,3.182, SURF_ID='Gypsum wall' /
&OBST ID='Walls_72', XB=-22.062,-21.812,0.930,2.170,-0.060,2.101, SURF_ID='Gypsum wall' /
&OBST ID='Walls_73', XB=-22.062,-21.562,2.170,2.418,-0.060,2.101, SURF_ID='Gypsum wall' /
&OBST ID='Walls_74', XB=-22.062,-20.312,-2.418,-2.170,2.101,3.182, SURF_ID='Gypsum wall' /
&OBST ID='Walls_75', XB=-22.062,-3.438,2.170,2.418,2.101,3.182, SURF_ID='Gypsum wall' /
&OBST ID='Walls_76', XB=-21.812,-21.562,-2.418,-2.170,-0.060,2.101, SURF_ID='Gypsum wall' /
&OBST ID='Walls_77', XB=-20.562,-20.312,-2.418,-2.170,-0.060,2.101, SURF_ID='Gypsum wall' /
&OBST ID='Walls_78', XB=-20.562,-20.312,2.170,2.418,-0.060,2.101, SURF_ID='Gypsum wall' /
&OBST ID='Walls_79', XB=-20.562,-20.312,13.702,13.826,1.141,3.182, SURF_ID='Gypsum wall' /
&OBST ID='Walls_80', XB=-20.562,-19.438,-13.826,-13.578,1.141,3.062, SURF_ID='Gypsum wall' /
&OBST ID='Walls_81', XB=-20.562,-19.438,-13.826,-13.578,5.583,7.384, SURF_ID='Gypsum wall' /
&OBST ID='Walls_82', XB=-20.562,-19.438,13.702,13.826,5.583,7.384, SURF_ID='Gypsum wall' /
&OBST ID='Walls_83', XB=-20.312,-20.062,-13.578,-2.170,-0.060,3.182, SURF_ID='Gypsum wall' /
&OBST ID='Walls_84', XB=-20.312,-20.062,2.170,13.826,-0.060,2.101, SURF_ID='Gypsum wall' /
&OBST ID='Walls_85', XB=-20.312,-20.062,2.418,13.826,2.101,3.182, SURF_ID='Gypsum wall' /
&OBST ID='Walls_86', XB=-20.062,-19.438,-2.418,-2.170,-0.060,3.182, SURF_ID='Gypsum wall' /
&OBST ID='Walls_87', XB=-20.062,-19.438,2.170,2.418,-0.060,2.101, SURF_ID='Gypsum wall' /
&OBST ID='Walls_88', XB=-20.062,-19.438,13.702,13.826,1.141,2.942, SURF_ID='Gypsum wall' /
&OBST ID='Walls_89', XB=-20.062,-15.562,13.702,13.826,2.942,3.182, SURF_ID='Gypsum wall' /
&OBST ID='Walls_90', XB=-20.062,-4.938,13.702,13.826,-0.060,1.141, SURF_ID='Gypsum wall' /
&OBST ID='Walls_91', XB=-19.438,-18.312,-2.418,-2.170,2.101,3.182, SURF_ID='Gypsum wall' /
&OBST ID='Walls_92', XB=-19.438,-5.562,-13.826,-13.578,2.942,3.062, SURF_ID='Gypsum wall' /
&OBST ID='Walls_93', XB=-18.938,-18.812,2.418,2.542,4.383,7.625, SURF_ID='Gypsum wall' /
&OBST ID='Walls_94', XB=-18.938,-18.562,-2.542,-2.418,4.383,7.625, SURF_ID='Gypsum wall' /
&OBST ID='Walls_95', XB=-18.812,-18.688,2.294,2.418,4.383,7.625, SURF_ID='Gypsum wall' /
&OBST ID='Walls_96', XB=-18.812,-18.562,-2.666,-2.542,4.383,6.544, SURF_ID='Gypsum wall' /
&OBST ID='Walls_97', XB=-18.812,-18.562,2.418,2.666,4.383,7.625, SURF_ID='Gypsum wall' /
&OBST ID='Walls_98', XB=-18.812,-18.438,-2.666,-2.542,6.544,7.625, SURF_ID='Gypsum wall' /
&OBST ID='Walls_99', XB=-18.688,-18.562,2.666,2.790,6.544,7.625, SURF_ID='Gypsum wall' /
&OBST ID='Walls_100', XB=-18.688,-18.312,-2.790,-2.666,6.544,7.625, SURF_ID='Gypsum wall' /
&OBST ID='Walls_101', XB=-18.562,-18.438,2.542,2.790,6.544,7.625, SURF_ID='Gypsum wall' /
&OBST ID='Walls_102', XB=-18.562,-18.188,-2.914,-2.790,6.544,7.625, SURF_ID='Gypsum wall' /
&OBST ID='Walls_103', XB=-18.562,-18.188,2.790,2.914,6.544,7.625, SURF_ID='Gypsum wall' /
&OBST ID='Walls_104', XB=-18.438,-18.312,2.666,2.790,6.544,7.625, SURF_ID='Gypsum wall' /
&OBST ID='Walls_105', XB=-18.438,-18.062,-3.038,-2.914,6.544,7.625, SURF_ID='Gypsum wall' /
&OBST ID='Walls_106', XB=-18.438,-18.062,2.914,3.038,6.544,7.625, SURF_ID='Gypsum wall' /
&OBST ID='Walls_107', XB=-18.312,-17.938,-3.162,-3.038,6.544,7.625, SURF_ID='Gypsum wall' /
&OBST ID='Walls_108', XB=-18.312,-17.938,3.038,3.162,6.544,7.625, SURF_ID='Gypsum wall' /
&OBST ID='Walls_109', XB=-18.312,-6.688,-2.418,-2.170,-0.060,3.182, SURF_ID='Gypsum wall' /
&OBST ID='Walls_110', XB=-18.312,-6.688,2.170,2.418,-0.060,2.101, SURF_ID='Gypsum wall' /
&OBST ID='Walls_111', XB=-18.188,-17.812,-3.286,-3.162,6.544,7.625, SURF_ID='Gypsum wall' /
&OBST ID='Walls_112', XB=-18.188,-17.812,3.162,3.286,6.544,7.625, SURF_ID='Gypsum wall' /
&OBST ID='Walls_113', XB=-18.062,-17.938,-3.410,-3.286,6.544,7.625, SURF_ID='Gypsum wall' /
&OBST ID='Walls_114', XB=-18.062,-17.938,3.286,3.410,6.544,7.625, SURF_ID='Gypsum wall' /
&OBST ID='Walls_115', XB=-17.938,-17.812,-3.534,-3.410,4.383,7.625, SURF_ID='Gypsum wall' /
&OBST ID='Walls_116', XB=-17.938,-17.688,-3.410,-3.286,4.383,7.625, SURF_ID='Gypsum wall' /
&OBST ID='Walls_117', XB=-17.938,-17.688,3.286,3.534,4.383,7.625, SURF_ID='Gypsum wall' /
&OBST ID='Walls_118', XB=-17.812,-17.562,-3.658,-3.410,4.383,7.625, SURF_ID='Gypsum wall' /
&OBST ID='Walls_119', XB=-17.812,-17.562,3.534,3.658,4.383,7.625, SURF_ID='Gypsum wall' /
&OBST ID='Walls_120', XB=-17.688,-17.562,-3.782,-3.658,4.383,7.625, SURF_ID='Gypsum wall' /
&OBST ID='Walls_121', XB=-17.688,-17.562,3.410,3.534,4.383,7.625, SURF_ID='Gypsum wall' /
&OBST ID='Walls_122', XB=-17.688,-17.562,3.658,3.782,4.383,7.625, SURF_ID='Gypsum wall' /
&OBST ID='Walls_123', XB=-17.562,-17.438,-13.702,-13.578,5.583,7.384, SURF_ID='Gypsum wall' /
&OBST ID='Walls_124', XB=-17.562,-17.438,-13.578,-3.534,4.383,7.625, SURF_ID='Gypsum wall' /