! Generated by BlenderFDS 3.0.0 on Blender 2.69 (sub 0)
! Date: Fri, 20 Dec 2013, 16:41:17
! File: /home/egissi/Documenti/Argomenti/BlenderFDS/svn/trunk/examples/uni-build/uni-build_02.blend

! HEAD: Free text 'Free text' appended
&HEAD CHID='uni-build_s1' TITLE='University building, scenario 1' /
&MATL ID='Gypsum plaster', CONDUCTIVITY=0.48,
      SPECIFIC_HEAT=0.84, DENSITY=1440. /
      Thermo-physical properties of gypsum plaster.

&PROP ID='acme smoke detector', QUANTITY='CHAMBER OBSCURATION',
      LENGTH=1.8, ACTIVATION_OBSCURATION=3.28 /
      
&ISOF QUANTITY='TEMPERATURE', VALUE(1)=60. /
&ISOF QUANTITY='VISIBILITY', VALUE(1)=10. /
&BNDF QUANTITY='ADIABATIC SURFACE TEMPERATURE' /
! End of free text
&TIME T_BEGIN=0.0 T_END=600.0 /
&REAC FUEL='polyurethane' FYI='Polyurethane flexible foam (means), Tewarson SFPE Handbook 3rd ed, table 3-4.14, p. 3-112.' CO_YIELD=0.027750 SOOT_YIELD=0.187500 HEAT_OF_COMBUSTION=25300.0 IDEAL=.TRUE. C=1 H=1.75 O=0.25 N=0.065 /
&DUMP RENDER_FILE='uni-build_s1.GE1' /
! SURF: TAU_Q: HRR(t) has a t² ramp
&SURF ID='Burner' FYI='Est.d area 5.00 m², HRR max 1500 kW, fast t² ramp (US)' RGB=204,0,2 HRRPUA=300.000 TAU_Q=-178.9 /
&SURF ID='Glass pane' RGB=0,204,201 TRANSPARENCY=0.20 /
&SURF ID='Gypsum wall' RGB=184,186,136 /
! Building: group of namelists
! OBST: XB: 98 voxels, resolution 0.100 m, in 4 s (s:1 c:0 fb:0, g1:0, g2:0)
&OBST ID='Columns_0' XB=-25.250,-24.750,1.350,2.250,4.350,7.150 SURF_ID='Gypsum wall' /
&OBST ID='Columns_1' XB=-25.250,-24.750,-2.250,-1.350,4.350,7.150 SURF_ID='Gypsum wall' /
&OBST ID='Columns_2' XB=-5.150,-4.850,-13.750,-13.350,-0.050,3.150 SURF_ID='Gypsum wall' /
&OBST ID='Columns_3' XB=-5.150,-4.850,-13.750,-13.350,4.350,7.550 SURF_ID='Gypsum wall' /
&OBST ID='Columns_4' XB=-25.150,-24.850,-1.650,-1.350,-0.050,3.150 SURF_ID='Gypsum wall' /
&OBST ID='Columns_5' XB=-20.250,-19.750,-2.250,-1.350,-0.050,2.750 SURF_ID='Gypsum wall' /
&OBST ID='Columns_6' XB=-20.250,-19.750,-2.250,-1.350,4.350,7.150 SURF_ID='Gypsum wall' /
&OBST ID='Columns_7' XB=-10.250,-9.750,1.350,2.250,-0.050,2.750 SURF_ID='Gypsum wall' /
&OBST ID='Columns_8' XB=-10.250,-9.750,1.350,2.250,4.350,7.150 SURF_ID='Gypsum wall' /
&OBST ID='Columns_9' XB=-2.250,-2.050,13.350,13.750,-0.050,3.150 SURF_ID='Gypsum wall' /
&OBST ID='Columns_10' XB=-2.250,-2.050,13.350,13.750,4.350,7.550 SURF_ID='Gypsum wall' /
&OBST ID='Columns_11' XB=-10.250,-9.750,-2.250,-1.350,-0.050,2.750 SURF_ID='Gypsum wall' /
&OBST ID='Columns_12' XB=-10.250,-9.750,-2.250,-1.350,4.350,7.150 SURF_ID='Gypsum wall' /
&OBST ID='Columns_13' XB=14.750,15.250,1.350,2.250,-0.050,2.750 SURF_ID='Gypsum wall' /
&OBST ID='Columns_14' XB=14.750,15.250,1.350,2.250,4.350,7.150 SURF_ID='Gypsum wall' /
&OBST ID='Columns_15' XB=19.750,20.150,-2.250,-1.350,-0.050,2.750 SURF_ID='Gypsum wall' /
&OBST ID='Columns_16' XB=19.750,20.150,-2.250,-1.350,4.350,7.150 SURF_ID='Gypsum wall' /
&OBST ID='Columns_17' XB=-15.250,-14.750,-2.250,-1.350,-0.050,2.750 SURF_ID='Gypsum wall' /
&OBST ID='Columns_18' XB=-15.250,-14.750,-2.250,-1.350,4.350,7.150 SURF_ID='Gypsum wall' /
&OBST ID='Columns_19' XB=-20.050,-19.750,13.350,13.750,-0.050,3.150 SURF_ID='Gypsum wall' /
&OBST ID='Columns_20' XB=-20.050,-19.750,13.350,13.750,4.350,7.550 SURF_ID='Gypsum wall' /
&OBST ID='Columns_21' XB=4.850,5.150,-13.750,-13.350,-0.050,3.150 SURF_ID='Gypsum wall' /
&OBST ID='Columns_22' XB=4.850,5.150,-13.750,-13.350,4.350,7.550 SURF_ID='Gypsum wall' /
&OBST ID='Columns_23' XB=9.750,10.250,1.350,2.250,-0.050,2.750 SURF_ID='Gypsum wall' /
&OBST ID='Columns_24' XB=9.750,10.250,1.350,2.250,4.350,7.150 SURF_ID='Gypsum wall' /
&OBST ID='Columns_25' XB=4.950,5.250,13.350,13.750,-0.050,3.150 SURF_ID='Gypsum wall' /
&OBST ID='Columns_26' XB=4.950,5.250,13.350,13.750,4.350,7.550 SURF_ID='Gypsum wall' /
&OBST ID='Columns_27' XB=-5.250,-4.750,1.350,2.250,-0.050,2.750 SURF_ID='Gypsum wall' /
&OBST ID='Columns_28' XB=-5.250,-4.750,1.350,2.250,4.350,7.150 SURF_ID='Gypsum wall' /
&OBST ID='Columns_29' XB=24.750,25.250,-2.250,-1.350,4.350,7.150 SURF_ID='Gypsum wall' /
&OBST ID='Columns_30' XB=-15.150,-14.850,13.350,13.750,-0.050,3.150 SURF_ID='Gypsum wall' /
&OBST ID='Columns_31' XB=-15.150,-14.850,13.350,13.750,4.350,7.550 SURF_ID='Gypsum wall' /
&OBST ID='Columns_32' XB=-25.150,-24.850,1.350,1.650,-0.050,3.150 SURF_ID='Gypsum wall' /
&OBST ID='Columns_33' XB=19.750,20.150,1.350,2.250,-0.050,2.750 SURF_ID='Gypsum wall' /
&OBST ID='Columns_34' XB=19.750,20.150,1.350,2.250,4.350,7.150 SURF_ID='Gypsum wall' /
&OBST ID='Columns_35' XB=9.850,10.150,13.350,13.750,-0.050,3.150 SURF_ID='Gypsum wall' /
&OBST ID='Columns_36' XB=9.850,10.150,13.350,13.750,4.350,7.550 SURF_ID='Gypsum wall' /
&OBST ID='Columns_37' XB=29.850,30.250,13.350,13.750,-0.050,3.150 SURF_ID='Gypsum wall' /
&OBST ID='Columns_38' XB=29.850,30.250,13.350,13.750,4.350,7.550 SURF_ID='Gypsum wall' /
&OBST ID='Columns_39' XB=24.850,25.150,-1.650,-1.350,-0.050,3.150 SURF_ID='Gypsum wall' /
&OBST ID='Columns_40' XB=-5.250,-4.750,-2.250,-1.350,-0.050,2.750 SURF_ID='Gypsum wall' /
&OBST ID='Columns_41' XB=-5.250,-4.750,-2.250,-1.350,4.350,7.150 SURF_ID='Gypsum wall' /
&OBST ID='Columns_42' XB=-15.250,-14.750,1.350,2.250,-0.050,2.750 SURF_ID='Gypsum wall' /
&OBST ID='Columns_43' XB=-15.250,-14.750,1.350,2.250,4.350,7.150 SURF_ID='Gypsum wall' /
&OBST ID='Columns_44' XB=-20.250,-19.750,1.350,2.250,-0.050,2.750 SURF_ID='Gypsum wall' /
&OBST ID='Columns_45' XB=-20.250,-19.750,1.350,2.250,4.350,7.150 SURF_ID='Gypsum wall' /
&OBST ID='Columns_46' XB=4.750,5.250,1.350,2.250,-0.050,2.750 SURF_ID='Gypsum wall' /
&OBST ID='Columns_47' XB=4.750,5.250,1.350,2.250,4.350,7.150 SURF_ID='Gypsum wall' /
&OBST ID='Columns_48' XB=-30.150,-29.850,-1.650,-1.350,-0.050,3.150 SURF_ID='Gypsum wall' /
&OBST ID='Columns_49' XB=14.750,15.250,-2.250,-1.350,-0.050,2.750 SURF_ID='Gypsum wall' /
&OBST ID='Columns_50' XB=14.750,15.250,-2.250,-1.350,4.350,7.150 SURF_ID='Gypsum wall' /
&OBST ID='Columns_51' XB=4.750,5.250,-2.250,-1.350,-0.050,2.750 SURF_ID='Gypsum wall' /
&OBST ID='Columns_52' XB=4.750,5.250,-2.250,-1.350,4.350,7.150 SURF_ID='Gypsum wall' /
&OBST ID='Columns_53' XB=-15.150,-14.850,-13.750,-13.350,-0.050,3.150 SURF_ID='Gypsum wall' /
&OBST ID='Columns_54' XB=-15.150,-14.850,-13.750,-13.350,4.350,7.550 SURF_ID='Gypsum wall' /
&OBST ID='Columns_55' XB=9.750,10.250,-2.250,-1.350,-0.050,2.750 SURF_ID='Gypsum wall' /
&OBST ID='Columns_56' XB=9.750,10.250,-2.250,-1.350,4.350,7.150 SURF_ID='Gypsum wall' /
&OBST ID='Columns_57' XB=19.850,20.150,-13.750,-13.350,-0.050,3.150 SURF_ID='Gypsum wall' /
&OBST ID='Columns_58' XB=19.850,20.150,-13.750,-13.350,4.350,7.550 SURF_ID='Gypsum wall' /
&OBST ID='Columns_59' XB=2.050,2.250,13.350,13.750,-0.050,3.150 SURF_ID='Gypsum wall' /
&OBST ID='Columns_60' XB=2.050,2.250,13.350,13.750,4.350,7.550 SURF_ID='Gypsum wall' /
&OBST ID='Columns_61' XB=29.850,30.150,1.350,1.650,-0.050,3.150 SURF_ID='Gypsum wall' /
&OBST ID='Columns_62' XB=29.850,30.150,1.350,1.650,4.350,7.550 SURF_ID='Gypsum wall' /
&OBST ID='Columns_63' XB=24.750,25.250,1.350,2.250,4.350,7.150 SURF_ID='Gypsum wall' /
&OBST ID='Columns_64' XB=24.850,25.150,-13.750,-13.350,-0.050,3.150 SURF_ID='Gypsum wall' /
&OBST ID='Columns_65' XB=24.850,25.150,-13.750,-13.350,4.350,7.550 SURF_ID='Gypsum wall' /
&OBST ID='Columns_66' XB=14.850,15.150,-13.750,-13.350,-0.050,3.150 SURF_ID='Gypsum wall' /
&OBST ID='Columns_67' XB=14.850,15.150,-13.750,-13.350,4.350,7.550 SURF_ID='Gypsum wall' /
&OBST ID='Columns_68' XB=-25.150,-24.850,-13.750,-13.350,-0.050,3.150 SURF_ID='Gypsum wall' /
&OBST ID='Columns_69' XB=-25.150,-24.850,-13.750,-13.350,4.350,7.550 SURF_ID='Gypsum wall' /
&OBST ID='Columns_70' XB=-10.150,-9.850,-13.750,-13.350,-0.050,3.150 SURF_ID='Gypsum wall' /
&OBST ID='Columns_71' XB=-10.150,-9.850,-13.750,-13.350,4.350,7.550 SURF_ID='Gypsum wall' /
&OBST ID='Columns_72' XB=-10.150,-9.850,13.350,13.750,-0.050,3.150 SURF_ID='Gypsum wall' /
&OBST ID='Columns_73' XB=-10.150,-9.850,13.350,13.750,4.350,7.550 SURF_ID='Gypsum wall' /
&OBST ID='Columns_74' XB=-30.250,-29.850,13.350,13.750,-0.050,3.150 SURF_ID='Gypsum wall' /
&OBST ID='Columns_75' XB=-30.250,-29.850,13.350,13.750,4.350,7.550 SURF_ID='Gypsum wall' /
&OBST ID='Columns_76' XB=19.850,20.150,13.350,13.750,-0.050,3.150 SURF_ID='Gypsum wall' /
&OBST ID='Columns_77' XB=19.850,20.150,13.350,13.750,4.350,7.550 SURF_ID='Gypsum wall' /
&OBST ID='Columns_78' XB=-20.050,-19.750,-13.750,-13.350,-0.050,3.150 SURF_ID='Gypsum wall' /
&OBST ID='Columns_79' XB=-20.050,-19.750,-13.750,-13.350,4.350,7.550 SURF_ID='Gypsum wall' /
&OBST ID='Columns_80' XB=9.850,10.150,-13.750,-13.350,-0.050,3.150 SURF_ID='Gypsum wall' /
&OBST ID='Columns_81' XB=9.850,10.150,-13.750,-13.350,4.350,7.550 SURF_ID='Gypsum wall' /
&OBST ID='Columns_82' XB=-5.250,-4.950,13.350,13.750,-0.050,3.150 SURF_ID='Gypsum wall' /
&OBST ID='Columns_83' XB=-5.250,-4.950,13.350,13.750,4.350,7.550 SURF_ID='Gypsum wall' /
&OBST ID='Columns_84' XB=29.850,30.250,-13.750,-13.350,-0.050,3.150 SURF_ID='Gypsum wall' /
&OBST ID='Columns_85' XB=29.850,30.250,-13.750,-13.350,4.350,7.550 SURF_ID='Gypsum wall' /
&OBST ID='Columns_86' XB=24.850,25.150,1.350,1.650,-0.050,3.150 SURF_ID='Gypsum wall' /
&OBST ID='Columns_87' XB=-30.150,-29.850,1.350,1.650,-0.050,3.150 SURF_ID='Gypsum wall' /
&OBST ID='Columns_88' XB=-25.150,-24.850,13.350,13.750,-0.050,3.150 SURF_ID='Gypsum wall' /
&OBST ID='Columns_89' XB=-25.150,-24.850,13.350,13.750,4.350,7.550 SURF_ID='Gypsum wall' /
&OBST ID='Columns_90' XB=24.850,25.150,13.350,13.750,-0.050,3.150 SURF_ID='Gypsum wall' /
&OBST ID='Columns_91' XB=24.850,25.150,13.350,13.750,4.350,7.550 SURF_ID='Gypsum wall' /
&OBST ID='Columns_92' XB=-30.250,-29.850,-13.750,-13.350,-0.050,3.150 SURF_ID='Gypsum wall' /
&OBST ID='Columns_93' XB=-30.250,-29.850,-13.750,-13.350,4.350,7.550 SURF_ID='Gypsum wall' /
&OBST ID='Columns_94' XB=14.850,15.150,13.350,13.750,-0.050,3.150 SURF_ID='Gypsum wall' /
&OBST ID='Columns_95' XB=14.850,15.150,13.350,13.750,4.350,7.550 SURF_ID='Gypsum wall' /
&OBST ID='Columns_96' XB=29.850,30.150,-1.650,-1.350,-0.050,3.150 SURF_ID='Gypsum wall' /
&OBST ID='Columns_97' XB=29.850,30.150,-1.650,-1.350,4.350,7.550 SURF_ID='Gypsum wall' /
! OBST: XB: 93 voxels, resolution 0.100 m, in 0 s (s:0 c:0 fb:0, g1:0, g2:0)
&OBST ID='External stairs_0' XB=32.250,34.150,9.850,10.150,-0.050,0.050 SURF_ID='Gypsum wall' /
&OBST ID='External stairs_1' XB=-35.050,-32.250,6.550,6.650,2.050,2.150 SURF_ID='Gypsum wall' /
&OBST ID='External stairs_2' XB=-33.450,-31.550,1.250,1.550,4.150,4.250 SURF_ID='Gypsum wall' /
&OBST ID='External stairs_3' XB=32.250,34.150,1.250,1.550,4.150,4.250 SURF_ID='Gypsum wall' /
&OBST ID='External stairs_4' XB=32.250,34.150,7.450,7.750,1.250,1.350 SURF_ID='Gypsum wall' /
&OBST ID='External stairs_5' XB=-35.650,-33.750,4.950,5.250,2.050,2.150 SURF_ID='Gypsum wall' /
&OBST ID='External stairs_6' XB=-33.450,-31.550,4.950,5.250,2.050,2.150 SURF_ID='Gypsum wall' /
&OBST ID='External stairs_7' XB=-33.450,-31.550,1.550,1.850,3.950,4.050 SURF_ID='Gypsum wall' /
&OBST ID='External stairs_8' XB=32.250,34.150,1.550,1.850,3.950,4.050 SURF_ID='Gypsum wall' /
&OBST ID='External stairs_9' XB=-35.650,-33.750,2.650,2.950,0.750,0.850 SURF_ID='Gypsum wall' /
&OBST ID='External stairs_10' XB=32.250,34.150,6.250,6.550,1.950,2.050 SURF_ID='Gypsum wall' /
&OBST ID='External stairs_11' XB=-33.450,-30.250,0.050,1.050,4.350,4.450 SURF_ID='Gypsum wall' /
&OBST ID='External stairs_12' XB=30.250,34.150,0.150,0.950,4.350,4.450 SURF_ID='Gypsum wall' /
&OBST ID='External stairs_13' XB=-35.650,-33.750,2.950,3.250,0.950,1.050 SURF_ID='Gypsum wall' /
&OBST ID='External stairs_14' XB=-33.450,-31.550,4.050,4.350,2.550,2.650 SURF_ID='Gypsum wall' /
&OBST ID='External stairs_15' XB=32.250,34.150,4.050,4.350,2.550,2.650 SURF_ID='Gypsum wall' /
&OBST ID='External stairs_16' XB=-35.650,-33.750,4.350,4.650,1.750,1.850 SURF_ID='Gypsum wall' /
&OBST ID='External stairs_17' XB=-35.450,-31.850,6.150,6.250,2.050,2.150 SURF_ID='Gypsum wall' /
&OBST ID='External stairs_18' XB=32.250,34.150,5.950,6.250,2.050,2.150 SURF_ID='Gypsum wall' /
&OBST ID='External stairs_19' XB=-35.650,-33.750,2.150,2.450,0.450,0.550 SURF_ID='Gypsum wall' /
&OBST ID='External stairs_20' XB=-35.550,-31.750,6.050,6.150,2.050,2.150 SURF_ID='Gypsum wall' /
&OBST ID='External stairs_21' XB=-32.850,-30.250,-0.550,-0.450,4.350,4.450 SURF_ID='Gypsum wall' /
&OBST ID='External stairs_22' XB=30.250,33.450,-0.550,-0.450,4.350,4.450 SURF_ID='Gypsum wall' /
&OBST ID='External stairs_23' XB=-33.450,-31.550,3.250,3.550,3.050,3.150 SURF_ID='Gypsum wall' /
&OBST ID='External stairs_24' XB=32.250,34.150,3.250,3.550,3.050,3.150 SURF_ID='Gypsum wall' /
&OBST ID='External stairs_25' XB=32.250,34.150,7.150,7.450,1.450,1.550 SURF_ID='Gypsum wall' /
&OBST ID='External stairs_26' XB=-35.650,-33.750,2.350,2.650,0.650,0.750 SURF_ID='Gypsum wall' /
&OBST ID='External stairs_27' XB=32.250,34.150,8.650,8.950,0.650,0.750 SURF_ID='Gypsum wall' /
&OBST ID='External stairs_28' XB=-35.250,-32.050,6.350,6.450,2.050,2.150 SURF_ID='Gypsum wall' /
&OBST ID='External stairs_29' XB=-35.650,-31.550,5.250,5.950,2.050,2.150 SURF_ID='Gypsum wall' /
&OBST ID='External stairs_30' XB=32.250,34.150,8.050,8.350,0.950,1.050 SURF_ID='Gypsum wall' /
&OBST ID='External stairs_31' XB=-34.950,-32.350,6.650,6.750,2.050,2.150 SURF_ID='Gypsum wall' /
&OBST ID='External stairs_32' XB=32.250,34.150,9.250,9.550,0.350,0.450 SURF_ID='Gypsum wall' /
&OBST ID='External stairs_33' XB=-32.450,-30.250,-0.950,-0.850,4.350,4.450 SURF_ID='Gypsum wall' /
&OBST ID='External stairs_34' XB=30.250,33.050,-0.950,-0.850,4.350,4.450 SURF_ID='Gypsum wall' /
&OBST ID='External stairs_35' XB=32.250,34.150,8.350,8.650,0.750,0.850 SURF_ID='Gypsum wall' /
&OBST ID='External stairs_36' XB=32.250,34.150,4.650,5.950,2.250,2.350 SURF_ID='Gypsum wall' /
&OBST ID='External stairs_37' XB=32.250,34.150,6.850,7.150,1.550,1.650 SURF_ID='Gypsum wall' /
&OBST ID='External stairs_38' XB=-33.450,-31.550,4.350,4.650,2.350,2.450 SURF_ID='Gypsum wall' /
&OBST ID='External stairs_39' XB=32.250,34.150,4.350,4.650,2.350,2.450 SURF_ID='Gypsum wall' /
&OBST ID='External stairs_40' XB=-34.650,-32.650,6.950,7.050,2.050,2.150 SURF_ID='Gypsum wall' /
&OBST ID='External stairs_41' XB=32.250,34.150,6.550,6.850,1.750,1.850 SURF_ID='Gypsum wall' /
&OBST ID='External stairs_42' XB=-33.450,-31.550,3.550,3.850,2.850,2.950 SURF_ID='Gypsum wall' /
&OBST ID='External stairs_43' XB=32.250,34.150,3.550,3.850,2.850,2.950 SURF_ID='Gypsum wall' /
&OBST ID='External stairs_44' XB=-35.650,-33.750,3.750,4.050,1.450,1.550 SURF_ID='Gypsum wall' /
&OBST ID='External stairs_45' XB=-35.150,-32.150,6.450,6.550,2.050,2.150 SURF_ID='Gypsum wall' /
&OBST ID='External stairs_46' XB=-32.750,-30.250,-0.650,-0.550,4.350,4.450 SURF_ID='Gypsum wall' /
&OBST ID='External stairs_47' XB=30.250,33.350,-0.650,-0.550,4.350,4.450 SURF_ID='Gypsum wall' /
&OBST ID='External stairs_48' XB=-33.450,-31.550,3.750,4.050,2.750,2.850 SURF_ID='Gypsum wall' /
&OBST ID='External stairs_49' XB=32.250,34.150,3.750,4.050,2.750,2.850 SURF_ID='Gypsum wall' /
&OBST ID='External stairs_50' XB=-35.650,-33.750,3.250,3.550,1.150,1.250 SURF_ID='Gypsum wall' /
&OBST ID='External stairs_51' XB=-33.450,-31.550,1.850,2.150,3.850,3.950 SURF_ID='Gypsum wall' /
&OBST ID='External stairs_52' XB=32.250,34.150,1.850,2.150,3.850,3.950 SURF_ID='Gypsum wall' /
&OBST ID='External stairs_53' XB=-33.350,-30.250,-0.050,0.050,4.350,4.450 SURF_ID='Gypsum wall' /
&OBST ID='External stairs_54' XB=30.250,33.950,-0.050,0.050,4.350,4.450 SURF_ID='Gypsum wall' /
&OBST ID='External stairs_55' XB=-33.450,-31.550,1.050,1.250,4.350,4.450 SURF_ID='Gypsum wall' /
&OBST ID='External stairs_56' XB=32.250,34.150,0.950,1.250,4.350,4.450 SURF_ID='Gypsum wall' /
&OBST ID='External stairs_57' XB=-32.350,-30.250,-1.050,-0.950,4.350,4.450 SURF_ID='Gypsum wall' /
&OBST ID='External stairs_58' XB=30.250,32.950,-1.050,-0.950,4.350,4.450 SURF_ID='Gypsum wall' /
&OBST ID='External stairs_59' XB=30.250,34.050,0.050,0.150,4.350,4.450 SURF_ID='Gypsum wall' /
&OBST ID='External stairs_60' XB=-35.650,-33.750,4.050,4.350,1.550,1.650 SURF_ID='Gypsum wall' /
&OBST ID='External stairs_61' XB=-33.450,-31.550,4.650,4.950,2.250,2.350 SURF_ID='Gypsum wall' /
&OBST ID='External stairs_62' XB=-33.450,-31.550,2.950,3.250,3.150,3.250 SURF_ID='Gypsum wall' /
&OBST ID='External stairs_63' XB=32.250,34.150,2.950,3.250,3.150,3.250 SURF_ID='Gypsum wall' /
&OBST ID='External stairs_64' XB=-35.650,-33.750,3.550,3.850,1.250,1.350 SURF_ID='Gypsum wall' /
&OBST ID='External stairs_65' XB=-34.750,-32.550,6.850,6.950,2.050,2.150 SURF_ID='Gypsum wall' /
&OBST ID='External stairs_66' XB=-33.450,-31.550,2.650,2.950,3.350,3.450 SURF_ID='Gypsum wall' /
&OBST ID='External stairs_67' XB=32.250,34.150,2.650,2.950,3.350,3.450 SURF_ID='Gypsum wall' /
&OBST ID='External stairs_68' XB=-33.450,-31.550,2.150,2.450,3.650,3.750 SURF_ID='Gypsum wall' /
&OBST ID='External stairs_69' XB=32.250,34.150,2.150,2.450,3.650,3.750 SURF_ID='Gypsum wall' /
&OBST ID='External stairs_70' XB=-35.650,-33.750,1.550,1.850,0.150,0.250 SURF_ID='Gypsum wall' /
&OBST ID='External stairs_71' XB=32.250,34.150,9.550,9.850,0.150,0.250 SURF_ID='Gypsum wall' /
&OBST ID='External stairs_72' XB=32.250,34.150,7.750,8.050,1.150,1.250 SURF_ID='Gypsum wall' /
&OBST ID='External stairs_73' XB=-35.350,-31.950,6.250,6.350,2.050,2.150 SURF_ID='Gypsum wall' /
&OBST ID='External stairs_74' XB=-32.550,-30.250,-0.850,-0.750,4.350,4.450 SURF_ID='Gypsum wall' /
&OBST ID='External stairs_75' XB=30.250,33.150,-0.850,-0.750,4.350,4.450 SURF_ID='Gypsum wall' /
&OBST ID='External stairs_76' XB=-33.450,-31.550,2.350,2.650,3.550,3.650 SURF_ID='Gypsum wall' /
&OBST ID='External stairs_77' XB=32.250,34.150,2.350,2.650,3.550,3.650 SURF_ID='Gypsum wall' /
&OBST ID='External stairs_78' XB=32.250,34.150,8.950,9.250,0.450,0.550 SURF_ID='Gypsum wall' /
&OBST ID='External stairs_79' XB=-34.850,-32.450,6.750,6.850,2.050,2.150 SURF_ID='Gypsum wall' /
&OBST ID='External stairs_80' XB=-32.650,-30.250,-0.750,-0.650,4.350,4.450 SURF_ID='Gypsum wall' /
&OBST ID='External stairs_81' XB=30.250,33.250,-0.750,-0.650,4.350,4.450 SURF_ID='Gypsum wall' /
&OBST ID='External stairs_82' XB=-35.650,-33.750,1.850,2.150,0.350,0.450 SURF_ID='Gypsum wall' /
&OBST ID='External stairs_83' XB=-33.150,-30.250,-0.250,-0.150,4.350,4.450 SURF_ID='Gypsum wall' /
&OBST ID='External stairs_84' XB=30.250,33.750,-0.250,-0.150,4.350,4.450 SURF_ID='Gypsum wall' /
&OBST ID='External stairs_85' XB=-33.050,-30.250,-0.350,-0.250,4.350,4.450 SURF_ID='Gypsum wall' /
&OBST ID='External stairs_86' XB=30.250,33.650,-0.350,-0.250,4.350,4.450 SURF_ID='Gypsum wall' /
&OBST ID='External stairs_87' XB=-35.650,-33.750,4.650,4.950,1.950,2.050 SURF_ID='Gypsum wall' /
&OBST ID='External stairs_88' XB=-32.950,-30.250,-0.450,-0.350,4.350,4.450 SURF_ID='Gypsum wall' /
&OBST ID='External stairs_89' XB=30.250,33.550,-0.450,-0.350,4.350,4.450 SURF_ID='Gypsum wall' /
&OBST ID='External stairs_90' XB=-35.650,-31.650,5.950,6.050,2.050,2.150 SURF_ID='Gypsum wall' /
&OBST ID='External stairs_91' XB=-33.250,-30.250,-0.150,-0.050,4.350,4.450 SURF_ID='Gypsum wall' /
&OBST ID='External stairs_92' XB=30.250,33.850,-0.150,-0.050,4.350,4.450 SURF_ID='Gypsum wall' /
! OBST: XB: 98 voxels, resolution 0.100 m, in 1 s (s:0 c:0 fb:0, g1:0, g2:0)
&OBST ID='Internal stairs_0' XB=0.050,1.950,11.150,11.650,5.150,5.250 SURF_ID='Gypsum wall' /
&OBST ID='Internal stairs_1' XB=0.050,1.950,10.250,10.850,4.650,4.750 SURF_ID='Gypsum wall' /
&OBST ID='Internal stairs_2' XB=0.050,1.950,10.550,11.050,0.650,0.750 SURF_ID='Gypsum wall' /
&OBST ID='Internal stairs_3' XB=0.050,1.950,12.250,12.850,5.850,5.950 SURF_ID='Gypsum wall' /
&OBST ID='Internal stairs_4' XB=0.050,1.950,9.650,10.050,0.050,0.150 SURF_ID='Gypsum wall' /
&OBST ID='Internal stairs_5' XB=0.050,1.950,12.850,13.250,6.050,6.150 SURF_ID='Gypsum wall' /
&OBST ID='Internal stairs_6' XB=-1.950,-0.050,10.550,11.050,7.550,7.650 SURF_ID='Gypsum wall' /
&OBST ID='Internal stairs_7' XB=-1.950,-0.050,10.350,10.750,3.850,3.950 SURF_ID='Gypsum wall' /
&OBST ID='Internal stairs_8' XB=-1.950,-0.050,10.650,11.050,3.650,3.750 SURF_ID='Gypsum wall' /
&OBST ID='Internal stairs_9' XB=-1.950,-0.050,9.750,10.250,4.150,4.250 SURF_ID='Gypsum wall' /
&OBST ID='Internal stairs_10' XB=-1.950,1.950,13.150,13.850,6.250,6.450 SURF_ID='Gypsum wall' /
&OBST ID='Internal stairs_11' XB=-1.950,-1.850,7.850,9.950,4.250,4.350 SURF_ID='Gypsum wall' /
&OBST ID='Internal stairs_12' XB=1.850,1.950,7.850,9.950,4.250,4.350 SURF_ID='Gypsum wall' /
&OBST ID='Internal stairs_13' XB=0.050,1.950,9.950,10.150,4.250,4.350 SURF_ID='Gypsum wall' /
&OBST ID='Internal stairs_14' XB=0.050,1.950,10.850,11.250,0.750,0.850 SURF_ID='Gypsum wall' /
&OBST ID='Internal stairs_15' XB=-1.950,-0.050,9.850,10.250,7.950,8.050 SURF_ID='Gypsum wall' /
&OBST ID='Internal stairs_16' XB=-1.950,-0.050,13.050,13.450,2.250,2.350 SURF_ID='Gypsum wall' /
&OBST ID='Internal stairs_17' XB=-1.950,-0.050,12.250,12.550,6.550,6.650 SURF_ID='Gypsum wall' /
&OBST ID='Internal stairs_18' XB=-1.950,-0.050,12.850,13.450,2.350,2.450 SURF_ID='Gypsum wall' /
&OBST ID='Internal stairs_19' XB=0.050,1.950,11.950,12.550,5.650,5.750 SURF_ID='Gypsum wall' /
&OBST ID='Internal stairs_20' XB=-1.950,-0.050,12.050,12.550,6.650,6.750 SURF_ID='Gypsum wall' /
&OBST ID='Internal stairs_21' XB=-1.950,-0.050,11.450,11.950,3.150,3.250 SURF_ID='Gypsum wall' /
&OBST ID='Internal stairs_22' XB=-1.950,-0.050,11.150,11.650,7.150,7.250 SURF_ID='Gypsum wall' /
&OBST ID='Internal stairs_23' XB=0.050,1.950,11.150,11.650,0.950,1.050 SURF_ID='Gypsum wall' /
&OBST ID='Internal stairs_24' XB=-1.950,-0.050,11.750,12.250,6.850,6.950 SURF_ID='Gypsum wall' /
&OBST ID='Internal stairs_25' XB=0.050,1.950,11.150,11.450,5.050,5.150 SURF_ID='Gypsum wall' /
&OBST ID='Internal stairs_26' XB=0.050,1.950,12.250,12.650,1.550,1.650 SURF_ID='Gypsum wall' /
&OBST ID='Internal stairs_27' XB=0.050,1.950,10.250,10.750,0.450,0.550 SURF_ID='Gypsum wall' /
&OBST ID='Internal stairs_28' XB=-2.050,2.050,13.850,15.350,2.050,2.250 SURF_ID='Gypsum wall' /
&OBST ID='Internal stairs_29' XB=-1.950,1.950,13.150,13.850,2.050,2.250 SURF_ID='Gypsum wall' /
&OBST ID='Internal stairs_30' XB=-1.950,-0.050,10.350,10.750,7.650,7.750 SURF_ID='Gypsum wall' /
&OBST ID='Internal stairs_31' XB=0.050,1.950,9.650,10.250,0.150,0.250 SURF_ID='Gypsum wall' /
&OBST ID='Internal stairs_32' XB=0.050,1.950,12.250,12.750,1.650,1.750 SURF_ID='Gypsum wall' /
&OBST ID='Internal stairs_33' XB=-1.950,-0.050,11.850,12.250,6.750,6.850 SURF_ID='Gypsum wall' /
&OBST ID='Internal stairs_34' XB=-1.950,-0.050,10.850,11.350,7.350,7.450 SURF_ID='Gypsum wall' /
&OBST ID='Internal stairs_35' XB=-1.950,-0.050,12.150,12.550,2.750,2.850 SURF_ID='Gypsum wall' /
&OBST ID='Internal stairs_36' XB=-1.950,-0.050,12.550,13.150,6.350,6.450 SURF_ID='Gypsum wall' /
&OBST ID='Internal stairs_37' XB=0.050,1.950,11.950,12.450,1.450,1.550 SURF_ID='Gypsum wall' /
&OBST ID='Internal stairs_38' XB=0.050,1.950,11.750,12.250,1.350,1.450 SURF_ID='Gypsum wall' /
&OBST ID='Internal stairs_39' XB=0.050,1.950,10.550,10.950,0.550,0.650 SURF_ID='Gypsum wall' /
&OBST ID='Internal stairs_40' XB=0.050,1.950,11.950,12.350,5.550,5.650 SURF_ID='Gypsum wall' /
&OBST ID='Internal stairs_41' XB=0.050,1.950,11.450,11.850,5.250,5.350 SURF_ID='Gypsum wall' /
&OBST ID='Internal stairs_42' XB=-2.050,2.050,13.850,15.350,6.250,6.450 SURF_ID='Gypsum wall' /
&OBST ID='Internal stairs_43' XB=0.050,1.950,10.850,11.150,4.850,4.950 SURF_ID='Gypsum wall' /
&OBST ID='Internal stairs_44' XB=0.050,1.950,12.550,13.150,1.850,1.950 SURF_ID='Gypsum wall' /
&OBST ID='Internal stairs_45' XB=0.050,1.950,11.150,11.450,0.850,0.950 SURF_ID='Gypsum wall' /
&OBST ID='Internal stairs_46' XB=-1.950,-0.050,12.550,12.850,2.550,2.650 SURF_ID='Gypsum wall' /
&OBST ID='Internal stairs_47' XB=0.050,1.950,9.950,10.450,0.250,0.350 SURF_ID='Gypsum wall' /
&OBST ID='Internal stairs_48' XB=0.050,1.950,10.850,11.350,4.950,5.050 SURF_ID='Gypsum wall' /
&OBST ID='Internal stairs_49' XB=0.050,1.950,10.550,10.950,4.750,4.850 SURF_ID='Gypsum wall' /
&OBST ID='Internal stairs_50' XB=0.050,1.950,11.450,11.950,1.150,1.250 SURF_ID='Gypsum wall' /
&OBST ID='Internal stairs_51' XB=-1.950,-0.050,10.150,10.450,7.750,7.850 SURF_ID='Gypsum wall' /
&OBST ID='Internal stairs_52' XB=-1.950,-0.050,10.450,10.750,3.750,3.850 SURF_ID='Gypsum wall' /
&OBST ID='Internal stairs_53' XB=-1.950,-0.050,9.950,10.450,7.850,7.950 SURF_ID='Gypsum wall' /
&OBST ID='Internal stairs_54' XB=-1.950,-0.050,9.650,10.250,8.050,8.150 SURF_ID='Gypsum wall' /
&OBST ID='Internal stairs_55' XB=-1.950,-0.050,10.850,11.350,3.550,3.650 SURF_ID='Gypsum wall' /
&OBST ID='Internal stairs_56' XB=-1.050,-0.150,9.050,9.150,4.250,4.350 SURF_ID='Gypsum wall' /
&OBST ID='Internal stairs_57' XB=-1.950,-0.050,12.350,12.850,6.450,6.550 SURF_ID='Gypsum wall' /
&OBST ID='Internal stairs_58' XB=0.050,1.950,12.850,13.350,6.150,6.250 SURF_ID='Gypsum wall' /
&OBST ID='Internal stairs_59' XB=0.050,1.950,12.850,13.350,1.950,2.050 SURF_ID='Gypsum wall' /
&OBST ID='Internal stairs_60' XB=-1.950,-0.050,12.650,13.150,2.450,2.550 SURF_ID='Gypsum wall' /
&OBST ID='Internal stairs_61' XB=-1.050,0.550,9.450,9.550,4.250,4.350 SURF_ID='Gypsum wall' /
&OBST ID='Internal stairs_62' XB=0.050,1.950,9.950,10.350,4.350,4.450 SURF_ID='Gypsum wall' /
&OBST ID='Internal stairs_63' XB=-1.950,-0.050,9.950,10.450,4.050,4.150 SURF_ID='Gypsum wall' /
&OBST ID='Internal stairs_64' XB=-1.950,-0.050,12.050,12.550,2.850,2.950 SURF_ID='Gypsum wall' /
&OBST ID='Internal stairs_65' XB=-1.050,0.150,9.250,9.350,4.250,4.350 SURF_ID='Gypsum wall' /
&OBST ID='Internal stairs_66' XB=0.050,1.950,10.250,10.550,0.350,0.450 SURF_ID='Gypsum wall' /
&OBST ID='Internal stairs_67' XB=-1.950,-0.050,12.750,13.150,6.250,6.350 SURF_ID='Gypsum wall' /
&OBST ID='Internal stairs_68' XB=0.050,1.950,11.450,11.750,1.050,1.150 SURF_ID='Gypsum wall' /
&OBST ID='Internal stairs_69' XB=-1.950,-0.050,9.350,9.650,8.250,8.450 SURF_ID='Gypsum wall' /
&OBST ID='Internal stairs_70' XB=-1.950,-0.050,11.350,11.650,7.050,7.150 SURF_ID='Gypsum wall' /
&OBST ID='Internal stairs_71' XB=0.050,1.950,12.550,13.050,5.950,6.050 SURF_ID='Gypsum wall' /
&OBST ID='Internal stairs_72' XB=-1.950,-0.050,11.050,11.350,7.250,7.350 SURF_ID='Gypsum wall' /
&OBST ID='Internal stairs_73' XB=-1.950,-0.050,11.150,11.650,3.350,3.450 SURF_ID='Gypsum wall' /
&OBST ID='Internal stairs_74' XB=0.050,1.950,12.550,12.950,1.750,1.850 SURF_ID='Gypsum wall' /
&OBST ID='Internal stairs_75' XB=0.050,1.950,9.950,10.450,4.450,4.550 SURF_ID='Gypsum wall' /
&OBST ID='Internal stairs_76' XB=-1.950,-0.050,10.150,10.450,3.950,4.050 SURF_ID='Gypsum wall' /
&OBST ID='Internal stairs_77' XB=-1.950,-0.050,11.350,11.650,3.250,3.350 SURF_ID='Gypsum wall' /
&OBST ID='Internal stairs_78' XB=0.050,1.950,11.750,12.050,5.350,5.450 SURF_ID='Gypsum wall' /
&OBST ID='Internal stairs_79' XB=-1.950,-0.050,10.950,11.350,3.450,3.550 SURF_ID='Gypsum wall' /
&OBST ID='Internal stairs_80' XB=0.050,1.950,11.750,12.150,5.450,5.550 SURF_ID='Gypsum wall' /
&OBST ID='Internal stairs_81' XB=-1.950,-0.050,9.450,9.950,8.150,8.250 SURF_ID='Gypsum wall' /
&OBST ID='Internal stairs_82' XB=-1.950,-0.050,10.650,11.050,7.450,7.550 SURF_ID='Gypsum wall' /
&OBST ID='Internal stairs_83' XB=-1.950,-0.050,12.350,12.850,2.650,2.750 SURF_ID='Gypsum wall' /
&OBST ID='Internal stairs_84' XB=-1.950,-0.050,11.550,11.950,6.950,7.050 SURF_ID='Gypsum wall' /
&OBST ID='Internal stairs_85' XB=0.050,1.950,12.250,12.650,5.750,5.850 SURF_ID='Gypsum wall' /
&OBST ID='Internal stairs_86' XB=-1.950,-0.050,11.850,12.250,2.950,3.050 SURF_ID='Gypsum wall' /
&OBST ID='Internal stairs_87' XB=-1.950,-0.050,11.650,12.250,3.050,3.150 SURF_ID='Gypsum wall' /
&OBST ID='Internal stairs_88' XB=0.050,1.950,10.250,10.650,4.550,4.650 SURF_ID='Gypsum wall' /
&OBST ID='Internal stairs_89' XB=0.050,1.950,11.750,12.150,1.250,1.350 SURF_ID='Gypsum wall' /
&OBST ID='Internal stairs_90' XB=-1.050,0.750,9.550,9.650,4.250,4.350 SURF_ID='Gypsum wall' /
&OBST ID='Internal stairs_91' XB=-0.150,-0.050,9.650,9.950,4.250,4.350 SURF_ID='Gypsum wall' /
&OBST ID='Internal stairs_92' XB=0.050,0.150,9.650,9.950,4.250,4.350 SURF_ID='Gypsum wall' /
&OBST ID='Internal stairs_93' XB=-1.050,0.050,9.150,9.250,4.250,4.350 SURF_ID='Gypsum wall' /
&OBST ID='Internal stairs_94' XB=-1.050,0.350,9.350,9.450,4.250,4.350 SURF_ID='Gypsum wall' /
&OBST ID='Internal stairs_95' XB=-1.050,-0.850,8.750,8.850,4.250,4.350 SURF_ID='Gypsum wall' /
&OBST ID='Internal stairs_96' XB=-1.050,-0.450,8.950,9.050,4.250,4.350 SURF_ID='Gypsum wall' /
&OBST ID='Internal stairs_97' XB=-1.050,-0.650,8.850,8.950,4.250,4.350 SURF_ID='Gypsum wall' /
! OBST: XB: 8 voxels, resolution 0.100 m, in 0 s (s:0 c:0 fb:0, g1:0, g2:0)
&OBST ID='Panels transparent_0' XB=1.150,1.550,-1.550,-1.450,9.550,12.250 SURF_ID='Glass pane' /
&OBST ID='Panels transparent_1' XB=-1.150,1.150,-1.550,-1.450,9.550,12.350 SURF_ID='Glass pane' /
&OBST ID='Panels transparent_2' XB=-1.550,-1.150,1.450,1.550,9.550,12.250 SURF_ID='Glass pane' /
&OBST ID='Panels transparent_3' XB=1.150,1.550,1.450,1.550,9.550,12.250 SURF_ID='Glass pane' /
&OBST ID='Panels transparent_4' XB=-1.150,1.150,1.450,1.550,9.550,12.350 SURF_ID='Glass pane' /
&OBST ID='Panels transparent_5' XB=-1.550,-1.150,-1.550,-1.450,9.550,12.250 SURF_ID='Glass pane' /
&OBST ID='Panels transparent_6' XB=-1.550,-1.450,-1.450,1.450,9.550,12.250 SURF_ID='Glass pane' /
&OBST ID='Panels transparent_7' XB=1.450,1.550,-1.450,1.450,9.550,12.250 SURF_ID='Glass pane' /
! OBST: XB: 840 voxels, resolution 0.100 m, in 39 s (s:7 c:0 fb:2, g1:19, g2:3)
&OBST ID='Walls int ext_0' XB=-28.550,-18.850,-2.350,-2.250,4.350,7.550 SURF_ID='Gypsum wall' /
&OBST ID='Walls int ext_1' XB=-4.550,-2.550,-13.850,-13.750,-0.050,1.150 SURF_ID='Gypsum wall' /
&OBST ID='Walls int ext_2' XB=-4.550,-0.550,-13.850,-13.750,4.350,5.550 SURF_ID='Gypsum wall' /
&OBST ID='Walls int ext_3' XB=20.450,24.450,-13.850,-13.750,-0.050,1.150 SURF_ID='Gypsum wall' /