
!!! Generated by BlenderFDS

! Wed, 09 Mar 2011 16:36:00
! Voxel Size: 0.050, 0.050, 0.050

&HEAD CHID='test_2', TITLE='This is a test fire, case 2: burner near the window', /

!!! External config file

&TIME T_END=900.0 /

&REAC ID='polyurethane', SOOT_YIELD=0.1875, CO_YIELD=0.02775,
      C=1.0, H=1.75, O=0.25, N=0.065,
      HEAT_OF_COMBUSTION=25300., IDEAL=.TRUE. /
      Gas phase reaction: polyurethane flexible foam (means) from
      Tewarson SFPE Handbook 3rd ed,
      SFPE handbook table 3-4.14, p. 3-112.

&MATL ID='Gypsum plaster', CONDUCTIVITY=0.48,
      SPECIFIC_HEAT=0.84, DENSITY=1440. /
      Thermo-physical properties of gypsum plaster.

&PROP ID='acme smoke detector', QUANTITY='CHAMBER OBSCURATION',
      LENGTH=1.8, ACTIVATION_OBSCURATION=3.28 /
      
&ISOF QUANTITY='TEMPERATURE', VALUE(1)=60. /
&ISOF QUANTITY='VISIBILITY', VALUE(1)=10. /
&BNDF QUANTITY='ADIABATIC SURFACE TEMPERATURE' /

!!! Boundary condition definitions

&SURF ID='Burner bc', RGB=204,0,0, HRRPUA=1000., /
&SURF ID='Gypsum wall', FYI=' 30 mm thick gypsum wall', RGB=155,204,143,
      MATL_ID='Gypsum plaster', THICKNESS=0.03, /
&SURF ID='Glass', RGB=0,204,199, TRANSPARENCY=0.200, /

!!! Computational domain

! 75000 cells, size: 0.100, 0.100, 0.100 m
&MESH ID='Domain', IJK=50,50,30, XB=-2.500,2.500,-2.500,2.500,0.000,3.000, /

!!! Geometry

&OBST ID='Glass door', SURF_ID='Glass', DEVC_ID='Point door breaker',
      XB=-1.540,-1.440,-0.500,0.500,0.000,2.000, /
! Ceiling
&OBST ID='Ceiling', SURF_ID='Gypsum wall', XB=-1.425,0.225,-1.425,-1.325,2.775,3.025, /
&OBST ID='Ceiling', SURF_ID='Gypsum wall', XB=-1.425,0.575,-1.325,-0.475,2.775,3.025, /
&OBST ID='Ceiling', SURF_ID='Gypsum wall', XB=-1.425,1.375,-0.475,-0.225,2.775,3.025, /
&OBST ID='Ceiling', SURF_ID='Gypsum wall', XB=-1.425,1.425,-0.225,1.425,2.775,3.025, /
&OBST ID='Ceiling', SURF_ID='Gypsum wall', XB=0.225,0.475,-1.375,-1.325,2.775,3.025, /
&OBST ID='Ceiling', SURF_ID='Gypsum wall', XB=0.575,0.675,-1.275,-1.175,2.775,3.025, /
&OBST ID='Ceiling', SURF_ID='Gypsum wall', XB=0.575,0.825,-1.175,-1.075,2.775,3.025, /
&OBST ID='Ceiling', SURF_ID='Gypsum wall', XB=0.575,0.975,-1.075,-1.025,2.775,3.025, /
&OBST ID='Ceiling', SURF_ID='Gypsum wall', XB=0.575,1.025,-1.025,-0.675,2.775,3.025, /
&OBST ID='Ceiling', SURF_ID='Gypsum wall', XB=0.575,1.275,-0.675,-0.475,2.775,3.025, /
&OBST ID='Ceiling', SURF_ID='Gypsum wall', XB=0.675,0.775,-1.225,-1.175,2.775,3.025, /
&OBST ID='Ceiling', SURF_ID='Gypsum wall', XB=0.825,0.925,-1.125,-1.075,2.775,3.025, /
&OBST ID='Ceiling', SURF_ID='Gypsum wall', XB=1.025,1.075,-0.975,-0.925,2.775,3.025, /
&OBST ID='Ceiling', SURF_ID='Gypsum wall', XB=1.025,1.125,-0.925,-0.825,2.775,3.025, /
&OBST ID='Ceiling', SURF_ID='Gypsum wall', XB=1.025,1.175,-0.825,-0.675,2.775,3.025, /
&OBST ID='Ceiling', SURF_ID='Gypsum wall', XB=1.175,1.225,-0.775,-0.675,2.775,3.025, /
&OBST ID='Ceiling', SURF_ID='Gypsum wall', XB=1.275,1.325,-0.575,-0.475,2.775,3.025, /
! External bc
&VENT ID='External bc', FYI='Boundary cond at domain borders', SURF_ID='OPEN', PBZ=3.000, /
&VENT ID='External bc', FYI='Boundary cond at domain borders', SURF_ID='OPEN', PBY=-2.500, /
&VENT ID='External bc', FYI='Boundary cond at domain borders', SURF_ID='OPEN', PBX=-2.500, /
&VENT ID='External bc', FYI='Boundary cond at domain borders', SURF_ID='OPEN', PBY=2.500, /
&VENT ID='External bc', FYI='Boundary cond at domain borders', SURF_ID='OPEN', PBX=2.500, /
! Burner2
&VENT ID='Burner2', FYI='HRR imposed', SURF_ID='Burner bc', XB=0.350,0.850,-0.650,-0.150,1.010,1.010, /
! Ground
&VENT ID='Ground', FYI='Boundary condition at -Z plane', SURF_ID='INERT', PBZ=0.000, /
! Wall
&OBST ID='Wall', FYI='Voxelized walls', SURF_ID='Gypsum wall', SAWTOOTH=.FALSE.,
      XB=-1.575,-1.375,-1.375,-0.475,-0.025,1.975, /
&OBST ID='Wall', FYI='Voxelized walls', SURF_ID='Gypsum wall', SAWTOOTH=.FALSE.,
      XB=-1.575,-1.375,-1.375,1.375,1.975,3.025, /
&OBST ID='Wall', FYI='Voxelized walls', SURF_ID='Gypsum wall', SAWTOOTH=.FALSE.,
      XB=-1.575,-1.375,0.475,1.375,-0.025,1.975, /
&OBST ID='Wall', FYI='Voxelized walls', SURF_ID='Gypsum wall', SAWTOOTH=.FALSE.,
      XB=-1.575,-0.675,-1.575,-1.525,-0.025,3.025, /
&OBST ID='Wall', FYI='Voxelized walls', SURF_ID='Gypsum wall', SAWTOOTH=.FALSE.,
      XB=-1.575,0.625,-1.525,-1.475,-0.025,3.025, /
&OBST ID='Wall', FYI='Voxelized walls', SURF_ID='Gypsum wall', SAWTOOTH=.FALSE.,
      XB=-1.575,0.675,-1.475,-1.375,-0.025,3.025, /
&OBST ID='Wall', FYI='Voxelized walls', SURF_ID='Gypsum wall', SAWTOOTH=.FALSE.,
      XB=-1.575,1.375,1.375,1.575,-0.025,3.025, /
&OBST ID='Wall', FYI='Voxelized walls', SURF_ID='Gypsum wall', SAWTOOTH=.FALSE.,
      XB=-0.675,0.225,-1.625,-1.525,-0.025,3.025, /
&OBST ID='Wall', FYI='Voxelized walls', SURF_ID='Gypsum wall', SAWTOOTH=.FALSE.,
      XB=0.175,0.625,-1.375,-1.325,1.125,3.025, /
&OBST ID='Wall', FYI='Voxelized walls', SURF_ID='Gypsum wall', SAWTOOTH=.FALSE.,
      XB=0.175,0.925,-1.375,-1.325,-0.025,1.125, /
&OBST ID='Wall', FYI='Voxelized walls', SURF_ID='Gypsum wall', SAWTOOTH=.FALSE.,
      XB=0.225,0.475,-1.575,-1.525,-0.025,3.025, /
&OBST ID='Wall', FYI='Voxelized walls', SURF_ID='Gypsum wall', SAWTOOTH=.FALSE.,
      XB=0.425,0.525,-1.325,-1.275,1.225,1.825, /
&OBST ID='Wall', FYI='Voxelized walls', SURF_ID='Gypsum wall', SAWTOOTH=.FALSE.,
      XB=0.425,0.675,-1.325,-1.275,1.825,3.025, /
&OBST ID='Wall', FYI='Voxelized walls', SURF_ID='Gypsum wall', SAWTOOTH=.FALSE.,
      XB=0.425,0.725,-1.325,-1.275,1.075,1.125, /
&OBST ID='Wall', FYI='Voxelized walls', SURF_ID='Gypsum wall', SAWTOOTH=.FALSE.,
      XB=0.425,0.775,-1.325,-1.275,1.175,1.225, /
&OBST ID='Wall', FYI='Voxelized walls', SURF_ID='Gypsum wall', SAWTOOTH=.FALSE.,
      XB=0.425,0.875,-1.325,-1.275,1.125,1.175, /
&OBST ID='Wall', FYI='Voxelized walls', SURF_ID='Gypsum wall', SAWTOOTH=.FALSE.,
      XB=0.425,0.975,-1.325,-1.275,-0.025,1.075, /
&OBST ID='Wall', FYI='Voxelized walls', SURF_ID='Gypsum wall', SAWTOOTH=.FALSE.,
      XB=0.525,0.575,-1.275,-1.225,1.475,1.525, /
&OBST ID='Wall', FYI='Voxelized walls', SURF_ID='Gypsum wall', SAWTOOTH=.FALSE.,
      XB=0.525,0.625,-1.325,-1.275,1.475,1.525, /
&OBST ID='Wall', FYI='Voxelized walls', SURF_ID='Gypsum wall', SAWTOOTH=.FALSE.,
      XB=0.525,0.625,-1.325,-1.225,1.225,1.475, /
&OBST ID='Wall', FYI='Voxelized walls', SURF_ID='Gypsum wall', SAWTOOTH=.FALSE.,
      XB=0.525,0.625,-1.325,-1.225,1.525,1.775, /
&OBST ID='Wall', FYI='Voxelized walls', SURF_ID='Gypsum wall', SAWTOOTH=.FALSE.,
      XB=0.525,0.625,-1.275,-1.225,1.075,1.175, /
&OBST ID='Wall', FYI='Voxelized walls', SURF_ID='Gypsum wall', SAWTOOTH=.FALSE.,
      XB=0.525,0.625,-1.275,-1.225,1.825,1.925, /
&OBST ID='Wall', FYI='Voxelized walls', SURF_ID='Gypsum wall', SAWTOOTH=.FALSE.,
      XB=0.525,0.725,-1.275,-1.225,1.175,1.225, /
&OBST ID='Wall', FYI='Voxelized walls', SURF_ID='Gypsum wall', SAWTOOTH=.FALSE.,
      XB=0.525,0.775,-1.325,-1.225,1.775,1.825, /
&OBST ID='Wall', FYI='Voxelized walls', SURF_ID='Gypsum wall', SAWTOOTH=.FALSE.,
      XB=0.525,1.025,-1.275,-1.225,-0.025,1.075, /
&OBST ID='Wall', FYI='Voxelized walls', SURF_ID='Gypsum wall', SAWTOOTH=.FALSE.,
      XB=0.525,1.025,-1.275,-1.225,1.925,3.025, /
&OBST ID='Wall', FYI='Voxelized walls', SURF_ID='Gypsum wall', SAWTOOTH=.FALSE.,
      XB=0.625,0.675,-1.375,-1.325,1.275,1.425, /
&OBST ID='Wall', FYI='Voxelized walls', SURF_ID='Gypsum wall', SAWTOOTH=.FALSE.,
      XB=0.625,0.675,-1.375,-1.325,1.575,1.625, /
&OBST ID='Wall', FYI='Voxelized walls', SURF_ID='Gypsum wall', SAWTOOTH=.FALSE.,
      XB=0.625,0.675,-1.375,-1.325,1.775,3.025, /
&OBST ID='Wall', FYI='Voxelized walls', SURF_ID='Gypsum wall', SAWTOOTH=.FALSE.,
      XB=0.625,0.675,-1.375,-1.275,1.625,1.775, /
&OBST ID='Wall', FYI='Voxelized walls', SURF_ID='Gypsum wall', SAWTOOTH=.FALSE.,
      XB=0.625,0.675,-1.325,-1.275,1.275,1.375, /
&OBST ID='Wall', FYI='Voxelized walls', SURF_ID='Gypsum wall', SAWTOOTH=.FALSE.,
      XB=0.625,0.675,-1.275,-1.225,1.225,1.325, /
&OBST ID='Wall', FYI='Voxelized walls', SURF_ID='Gypsum wall', SAWTOOTH=.FALSE.,
      XB=0.625,0.675,-1.275,-1.225,1.675,1.775, /
&OBST ID='Wall', FYI='Voxelized walls', SURF_ID='Gypsum wall', SAWTOOTH=.FALSE.,
      XB=0.625,0.725,-1.375,-1.275,1.225,1.275, /
&OBST ID='Wall', FYI='Voxelized walls', SURF_ID='Gypsum wall', SAWTOOTH=.FALSE.,
      XB=0.625,0.725,-1.275,-1.175,1.075,1.125, /
&OBST ID='Wall', FYI='Voxelized walls', SURF_ID='Gypsum wall', SAWTOOTH=.FALSE.,
      XB=0.625,0.725,-1.225,-1.175,1.175,1.225, /
&OBST ID='Wall', FYI='Voxelized walls', SURF_ID='Gypsum wall', SAWTOOTH=.FALSE.,
      XB=0.625,0.725,-1.225,-1.175,1.775,1.825, /
&OBST ID='Wall', FYI='Voxelized walls', SURF_ID='Gypsum wall', SAWTOOTH=.FALSE.,
      XB=0.625,0.775,-1.375,-1.325,1.175,1.225, /
&OBST ID='Wall', FYI='Voxelized walls', SURF_ID='Gypsum wall', SAWTOOTH=.FALSE.,
      XB=0.625,0.775,-1.275,-1.175,1.125,1.175, /
&OBST ID='Wall', FYI='Voxelized walls', SURF_ID='Gypsum wall', SAWTOOTH=.FALSE.,
      XB=0.625,0.775,-1.275,-1.175,1.825,1.925, /
&OBST ID='Wall', FYI='Voxelized walls', SURF_ID='Gypsum wall', SAWTOOTH=.FALSE.,
      XB=0.625,0.875,-1.375,-1.325,1.125,1.175, /
&OBST ID='Wall', FYI='Voxelized walls', SURF_ID='Gypsum wall', SAWTOOTH=.FALSE.,
      XB=0.625,1.025,-1.225,-1.175,1.025,1.075, /
&OBST ID='Wall', FYI='Voxelized walls', SURF_ID='Gypsum wall', SAWTOOTH=.FALSE.,
      XB=0.625,1.075,-1.225,-1.175,-0.025,0.475, /
&OBST ID='Wall', FYI='Voxelized walls', SURF_ID='Gypsum wall', SAWTOOTH=.FALSE.,
      XB=0.625,1.075,-1.225,-1.175,1.925,1.975, /
&OBST ID='Wall', FYI='Voxelized walls', SURF_ID='Gypsum wall', SAWTOOTH=.FALSE.,
      XB=0.625,1.075,-1.225,-1.175,2.025,3.025, /
&OBST ID='Wall', FYI='Voxelized walls', SURF_ID='Gypsum wall', SAWTOOTH=.FALSE.,
      XB=0.625,1.125,-1.225,-1.175,0.475,1.025, /
&OBST ID='Wall', FYI='Voxelized walls', SURF_ID='Gypsum wall', SAWTOOTH=.FALSE.,
      XB=0.625,1.125,-1.225,-1.175,1.975,2.025, /
&OBST ID='Wall', FYI='Voxelized walls', SURF_ID='Gypsum wall', SAWTOOTH=.FALSE.,
      XB=0.675,0.725,-1.475,-1.425,-0.025,1.325, /
&OBST ID='Wall', FYI='Voxelized walls', SURF_ID='Gypsum wall', SAWTOOTH=.FALSE.,
      XB=0.675,0.725,-1.475,-1.425,1.675,3.025, /
&OBST ID='Wall', FYI='Voxelized walls', SURF_ID='Gypsum wall', SAWTOOTH=.FALSE.,
      XB=0.675,0.725,-1.425,-1.325,1.275,1.325, /
&OBST ID='Wall', FYI='Voxelized walls', SURF_ID='Gypsum wall', SAWTOOTH=.FALSE.,
      XB=0.675,0.725,-1.425,-1.325,1.675,1.725, /
&OBST ID='Wall', FYI='Voxelized walls', SURF_ID='Gypsum wall', SAWTOOTH=.FALSE.,
      XB=0.675,0.725,-1.325,-1.225,1.725,1.775, /
&OBST ID='Wall', FYI='Voxelized walls', SURF_ID='Gypsum wall', SAWTOOTH=.FALSE.,
      XB=0.675,0.775,-1.425,-1.375,1.225,1.275, /
&OBST ID='Wall', FYI='Voxelized walls', SURF_ID='Gypsum wall', SAWTOOTH=.FALSE.,
      XB=0.675,0.775,-1.425,-1.325,1.725,1.775, /
&OBST ID='Wall', FYI='Voxelized walls', SURF_ID='Gypsum wall', SAWTOOTH=.FALSE.,
      XB=0.675,0.825,-1.425,-1.375,-0.025,1.225, /
&OBST ID='Wall', FYI='Voxelized walls', SURF_ID='Gypsum wall', SAWTOOTH=.FALSE.,
      XB=0.675,0.825,-1.425,-1.325,1.775,1.825, /
&OBST ID='Wall', FYI='Voxelized walls', SURF_ID='Gypsum wall', SAWTOOTH=.FALSE.,
      XB=0.675,0.825,-1.425,-1.275,1.825,3.025, /
&OBST ID='Wall', FYI='Voxelized walls', SURF_ID='Gypsum wall', SAWTOOTH=.FALSE.,
      XB=0.725,0.825,-1.325,-1.125,1.075,1.125, /
&OBST ID='Wall', FYI='Voxelized walls', SURF_ID='Gypsum wall', SAWTOOTH=.FALSE.,
      XB=0.725,0.875,-1.175,-1.125,1.875,1.925, /
&OBST ID='Wall', FYI='Voxelized walls', SURF_ID='Gypsum wall', SAWTOOTH=.FALSE.,
      XB=0.725,0.975,-1.175,-1.125,1.025,1.075, /
&OBST ID='Wall', FYI='Voxelized walls', SURF_ID='Gypsum wall', SAWTOOTH=.FALSE.,
      XB=0.725,1.125,-1.175,-1.125,1.925,3.025, /
&OBST ID='Wall', FYI='Voxelized walls', SURF_ID='Gypsum wall', SAWTOOTH=.FALSE.,
      XB=0.725,1.175,-1.175,-1.125,-0.025,1.025, /
&OBST ID='Wall', FYI='Voxelized walls', SURF_ID='Gypsum wall', SAWTOOTH=.FALSE.,
      XB=0.775,0.825,-1.275,-1.225,1.125,1.175, /
&OBST ID='Wall', FYI='Voxelized walls', SURF_ID='Gypsum wall', SAWTOOTH=.FALSE.,
      XB=0.775,0.825,-1.275,-1.225,1.825,1.875, /
&OBST ID='Wall', FYI='Voxelized walls', SURF_ID='Gypsum wall', SAWTOOTH=.FALSE.,
      XB=0.775,0.875,-1.225,-1.175,1.875,1.925, /
&OBST ID='Wall', FYI='Voxelized walls', SURF_ID='Gypsum wall', SAWTOOTH=.FALSE.,
      XB=0.775,0.875,-1.125,-1.075,-0.025,0.775, /
&OBST ID='Wall', FYI='Voxelized walls', SURF_ID='Gypsum wall', SAWTOOTH=.FALSE.,
      XB=0.775,0.925,-1.275,-1.225,1.875,1.925, /
&OBST ID='Wall', FYI='Voxelized walls', SURF_ID='Gypsum wall', SAWTOOTH=.FALSE.,
      XB=0.775,0.975,-1.125,-1.075,1.025,1.075, /
&OBST ID='Wall', FYI='Voxelized walls', SURF_ID='Gypsum wall', SAWTOOTH=.FALSE.,
      XB=0.775,0.975,-1.125,-1.075,1.925,1.975, /
&OBST ID='Wall', FYI='Voxelized walls', SURF_ID='Gypsum wall', SAWTOOTH=.FALSE.,
      XB=0.775,1.175,-1.125,-1.075,0.775,1.025, /
&OBST ID='Wall', FYI='Voxelized walls', SURF_ID='Gypsum wall', SAWTOOTH=.FALSE.,
      XB=0.775,1.175,-1.125,-1.075,1.975,3.025, /
&OBST ID='Wall', FYI='Voxelized walls', SURF_ID='Gypsum wall', SAWTOOTH=.FALSE.,
      XB=0.825,0.875,-1.375,-1.275,1.825,1.875, /
&OBST ID='Wall', FYI='Voxelized walls', SURF_ID='Gypsum wall', SAWTOOTH=.FALSE.,
      XB=0.825,0.875,-1.225,-1.175,1.075,1.125, /
&OBST ID='Wall', FYI='Voxelized walls', SURF_ID='Gypsum wall', SAWTOOTH=.FALSE.,
      XB=0.825,0.875,-1.075,-1.025,1.975,2.175, /
&OBST ID='Wall', FYI='Voxelized walls', SURF_ID='Gypsum wall', SAWTOOTH=.FALSE.,
      XB=0.825,0.925,-1.375,-1.325,1.875,3.025, /
&OBST ID='Wall', FYI='Voxelized walls', SURF_ID='Gypsum wall', SAWTOOTH=.FALSE.,
      XB=0.825,0.925,-1.325,-1.275,1.875,1.925, /
&OBST ID='Wall', FYI='Voxelized walls', SURF_ID='Gypsum wall', SAWTOOTH=.FALSE.,
      XB=0.825,0.925,-1.325,-1.225,1.075,1.125, /
&OBST ID='Wall', FYI='Voxelized walls', SURF_ID='Gypsum wall', SAWTOOTH=.FALSE.,
      XB=0.825,0.975,-1.325,-1.275,1.925,3.025, /
&OBST ID='Wall', FYI='Voxelized walls', SURF_ID='Gypsum wall', SAWTOOTH=.FALSE.,
      XB=0.825,0.975,-1.075,-1.025,1.925,1.975, /
&OBST ID='Wall', FYI='Voxelized walls', SURF_ID='Gypsum wall', SAWTOOTH=.FALSE.,
      XB=0.875,0.925,-1.075,-1.025,1.025,1.075, /
&OBST ID='Wall', FYI='Voxelized walls', SURF_ID='Gypsum wall', SAWTOOTH=.FALSE.,
      XB=0.875,0.925,-1.025,-0.975,1.975,2.175, /
&OBST ID='Wall', FYI='Voxelized walls', SURF_ID='Gypsum wall', SAWTOOTH=.FALSE.,
      XB=0.875,1.025,-1.025,-0.975,1.925,1.975, /
&OBST ID='Wall', FYI='Voxelized walls', SURF_ID='Gypsum wall', SAWTOOTH=.FALSE.,
      XB=0.875,1.225,-1.125,-1.025,-0.025,0.775, /
&OBST ID='Wall', FYI='Voxelized walls', SURF_ID='Gypsum wall', SAWTOOTH=.FALSE.,
      XB=0.875,1.225,-1.075,-1.025,0.775,1.025, /
&OBST ID='Wall', FYI='Voxelized walls', SURF_ID='Gypsum wall', SAWTOOTH=.FALSE.,
      XB=0.875,1.225,-1.075,-1.025,1.975,3.025, /
&OBST ID='Wall', FYI='Voxelized walls', SURF_ID='Gypsum wall', SAWTOOTH=.FALSE.,
      XB=0.925,1.275,-1.025,-0.975,-0.025,1.025, /
&OBST ID='Wall', FYI='Voxelized walls', SURF_ID='Gypsum wall', SAWTOOTH=.FALSE.,
      XB=0.925,1.275,-1.025,-0.975,1.975,3.025, /
&OBST ID='Wall', FYI='Voxelized walls', SURF_ID='Gypsum wall', SAWTOOTH=.FALSE.,
      XB=0.925,1.325,-0.975,-0.925,1.925,2.175, /
&OBST ID='Wall', FYI='Voxelized walls', SURF_ID='Gypsum wall', SAWTOOTH=.FALSE.,
      XB=0.975,1.025,-0.925,-0.875,1.925,2.175, /
&OBST ID='Wall', FYI='Voxelized walls', SURF_ID='Gypsum wall', SAWTOOTH=.FALSE.,
      XB=0.975,1.325,-0.975,-0.925,-0.025,1.025, /
&OBST ID='Wall', FYI='Voxelized walls', SURF_ID='Gypsum wall', SAWTOOTH=.FALSE.,
      XB=0.975,1.325,-0.975,-0.925,2.175,3.025, /
&OBST ID='Wall', FYI='Voxelized walls', SURF_ID='Gypsum wall', SAWTOOTH=.FALSE.,
      XB=1.025,1.375,-0.925,-0.875,-0.025,1.075, /
&OBST ID='Wall', FYI='Voxelized walls', SURF_ID='Gypsum wall', SAWTOOTH=.FALSE.,
      XB=1.025,1.375,-0.925,-0.875,1.925,3.025, /
&OBST ID='Wall', FYI='Voxelized walls', SURF_ID='Gypsum wall', SAWTOOTH=.FALSE.,
      XB=1.025,1.375,-0.875,-0.825,1.925,2.175, /
&OBST ID='Wall', FYI='Voxelized walls', SURF_ID='Gypsum wall', SAWTOOTH=.FALSE.,
      XB=1.075,1.125,-1.225,-1.175,2.625,2.675, /
&OBST ID='Wall', FYI='Voxelized walls', SURF_ID='Gypsum wall', SAWTOOTH=.FALSE.,
      XB=1.075,1.125,-0.975,-0.925,1.025,1.075, /
&OBST ID='Wall', FYI='Voxelized walls', SURF_ID='Gypsum wall', SAWTOOTH=.FALSE.,
      XB=1.075,1.125,-0.875,-0.775,2.175,3.025, /
&OBST ID='Wall', FYI='Voxelized walls', SURF_ID='Gypsum wall', SAWTOOTH=.FALSE.,
      XB=1.075,1.125,-0.825,-0.775,-0.025,1.075, /
&OBST ID='Wall', FYI='Voxelized walls', SURF_ID='Gypsum wall', SAWTOOTH=.FALSE.,
      XB=1.075,1.125,-0.825,-0.775,1.925,2.175, /
&OBST ID='Wall', FYI='Voxelized walls', SURF_ID='Gypsum wall', SAWTOOTH=.FALSE.,
      XB=1.075,1.175,-1.125,-1.075,1.925,1.975, /
&OBST ID='Wall', FYI='Voxelized walls', SURF_ID='Gypsum wall', SAWTOOTH=.FALSE.,
      XB=1.075,1.375,-0.875,-0.825,-0.025,1.075, /
&OBST ID='Wall', FYI='Voxelized walls', SURF_ID='Gypsum wall', SAWTOOTH=.FALSE.,
      XB=1.125,1.175,-1.175,-1.125,1.975,2.025, /
&OBST ID='Wall', FYI='Voxelized walls', SURF_ID='Gypsum wall', SAWTOOTH=.FALSE.,
      XB=1.125,1.175,-1.175,-1.125,2.625,3.025, /
&OBST ID='Wall', FYI='Voxelized walls', SURF_ID='Gypsum wall', SAWTOOTH=.FALSE.,
      XB=1.125,1.225,-1.075,-1.025,1.925,1.975, /
&OBST ID='Wall', FYI='Voxelized walls', SURF_ID='Gypsum wall', SAWTOOTH=.FALSE.,
      XB=1.125,1.275,-1.025,-0.975,1.925,1.975, /
&OBST ID='Wall', FYI='Voxelized walls', SURF_ID='Gypsum wall', SAWTOOTH=.FALSE.,
      XB=1.125,1.275,-1.025,-0.925,1.025,1.075, /
&OBST ID='Wall', FYI='Voxelized walls', SURF_ID='Gypsum wall', SAWTOOTH=.FALSE.,
      XB=1.125,1.375,-0.875,-0.825,2.175,3.025, /
&OBST ID='Wall', FYI='Voxelized walls', SURF_ID='Gypsum wall', SAWTOOTH=.FALSE.,
      XB=1.125,1.425,-0.825,-0.725,-0.025,1.125, /
&OBST ID='Wall', FYI='Voxelized walls', SURF_ID='Gypsum wall', SAWTOOTH=.FALSE.,
      XB=1.125,1.425,-0.825,-0.725,1.875,3.025, /
&OBST ID='Wall', FYI='Voxelized walls', SURF_ID='Gypsum wall', SAWTOOTH=.FALSE.,
      XB=1.175,1.225,-1.125,-1.075,1.975,2.025, /
&OBST ID='Wall', FYI='Voxelized walls', SURF_ID='Gypsum wall', SAWTOOTH=.FALSE.,
      XB=1.175,1.225,-1.125,-1.075,2.625,2.875, /
&OBST ID='Wall', FYI='Voxelized walls', SURF_ID='Gypsum wall', SAWTOOTH=.FALSE.,
      XB=1.175,1.225,-0.775,-0.725,1.825,1.875, /
&OBST ID='Wall', FYI='Voxelized walls', SURF_ID='Gypsum wall', SAWTOOTH=.FALSE.,
      XB=1.175,1.275,-0.875,-0.825,1.875,1.925, /
&OBST ID='Wall', FYI='Voxelized walls', SURF_ID='Gypsum wall', SAWTOOTH=.FALSE.,
      XB=1.175,1.375,-0.875,-0.825,1.075,1.125, /
&OBST ID='Wall', FYI='Voxelized walls', SURF_ID='Gypsum wall', SAWTOOTH=.FALSE.,
      XB=1.175,1.425,-0.775,-0.725,1.125,1.175, /
&OBST ID='Wall', FYI='Voxelized walls', SURF_ID='Gypsum wall', SAWTOOTH=.FALSE.,
      XB=1.175,1.475,-0.725,-0.625,-0.025,1.225, /
&OBST ID='Wall', FYI='Voxelized walls', SURF_ID='Gypsum wall', SAWTOOTH=.FALSE.,
      XB=1.175,1.475,-0.725,-0.625,1.775,3.025, /
&OBST ID='Wall', FYI='Voxelized walls', SURF_ID='Gypsum wall', SAWTOOTH=.FALSE.,
      XB=1.225,1.275,-0.825,-0.775,1.125,1.175, /
&OBST ID='Wall', FYI='Voxelized walls', SURF_ID='Gypsum wall', SAWTOOTH=.FALSE.,
      XB=1.225,1.275,-0.675,-0.625,1.275,1.325, /
&OBST ID='Wall', FYI='Voxelized walls', SURF_ID='Gypsum wall', SAWTOOTH=.FALSE.,
      XB=1.225,1.275,-0.675,-0.625,1.675,1.775, /
&OBST ID='Wall', FYI='Voxelized walls', SURF_ID='Gypsum wall', SAWTOOTH=.FALSE.,
      XB=1.225,1.275,-0.625,-0.525,-0.025,1.475, /
&OBST ID='Wall', FYI='Voxelized walls', SURF_ID='Gypsum wall', SAWTOOTH=.FALSE.,
      XB=1.225,1.275,-0.625,-0.525,1.525,3.025, /
&OBST ID='Wall', FYI='Voxelized walls', SURF_ID='Gypsum wall', SAWTOOTH=.FALSE.,
      XB=1.225,1.275,-0.575,-0.525,1.475,1.525, /
&OBST ID='Wall', FYI='Voxelized walls', SURF_ID='Gypsum wall', SAWTOOTH=.FALSE.,
      XB=1.225,1.375,-0.925,-0.875,1.075,1.125, /
&OBST ID='Wall', FYI='Voxelized walls', SURF_ID='Gypsum wall', SAWTOOTH=.FALSE.,
      XB=1.225,1.375,-0.925,-0.875,1.875,1.925, /
&OBST ID='Wall', FYI='Voxelized walls', SURF_ID='Gypsum wall', SAWTOOTH=.FALSE.,
      XB=1.225,1.425,-0.825,-0.725,1.825,1.875, /
&OBST ID='Wall', FYI='Voxelized walls', SURF_ID='Gypsum wall', SAWTOOTH=.FALSE.,
      XB=1.225,1.425,-0.775,-0.725,1.175,1.225, /
&OBST ID='Wall', FYI='Voxelized walls', SURF_ID='Gypsum wall', SAWTOOTH=.FALSE.,
      XB=1.225,1.475,-0.725,-0.625,1.225,1.275, /
&OBST ID='Wall', FYI='Voxelized walls', SURF_ID='Gypsum wall', SAWTOOTH=.FALSE.,
      XB=1.275,1.325,-0.975,-0.925,1.025,1.075, /
&OBST ID='Wall', FYI='Voxelized walls', SURF_ID='Gypsum wall', SAWTOOTH=.FALSE.,
      XB=1.275,1.325,-0.475,-0.425,-0.025,3.025, /
&OBST ID='Wall', FYI='Voxelized walls', SURF_ID='Gypsum wall', SAWTOOTH=.FALSE.,
      XB=1.275,1.375,-0.875,-0.825,1.825,1.925, /
&OBST ID='Wall', FYI='Voxelized walls', SURF_ID='Gypsum wall', SAWTOOTH=.FALSE.,
      XB=1.275,1.375,-0.875,-0.775,1.125,1.175, /
&OBST ID='Wall', FYI='Voxelized walls', SURF_ID='Gypsum wall', SAWTOOTH=.FALSE.,
      XB=1.275,1.375,-0.775,-0.725,1.775,1.825, /
&OBST ID='Wall', FYI='Voxelized walls', SURF_ID='Gypsum wall', SAWTOOTH=.FALSE.,
      XB=1.275,1.375,-0.725,-0.675,1.725,1.775, /
&OBST ID='Wall', FYI='Voxelized walls', SURF_ID='Gypsum wall', SAWTOOTH=.FALSE.,
      XB=1.275,1.375,-0.675,-0.625,1.275,1.375, /
&OBST ID='Wall', FYI='Voxelized walls', SURF_ID='Gypsum wall', SAWTOOTH=.FALSE.,
      XB=1.275,1.475,-0.675,-0.625,1.625,1.775, /
&OBST ID='Wall', FYI='Voxelized walls', SURF_ID='Gypsum wall', SAWTOOTH=.FALSE.,
      XB=1.275,1.525,-0.625,-0.475,-0.025,3.025, /
&OBST ID='Wall', FYI='Voxelized walls', SURF_ID='Gypsum wall', SAWTOOTH=.FALSE.,
      XB=1.325,1.375,-0.675,-0.625,1.375,1.425, /
&OBST ID='Wall', FYI='Voxelized walls', SURF_ID='Gypsum wall', SAWTOOTH=.FALSE.,
      XB=1.325,1.375,-0.675,-0.625,1.575,1.625, /
&OBST ID='Wall', FYI='Voxelized walls', SURF_ID='Gypsum wall', SAWTOOTH=.FALSE.,
      XB=1.325,1.375,-0.475,-0.175,-0.025,3.025, /
&OBST ID='Wall', FYI='Voxelized walls', SURF_ID='Gypsum wall', SAWTOOTH=.FALSE.,
      XB=1.325,1.425,-0.825,-0.775,1.175,1.225, /
&OBST ID='Wall', FYI='Voxelized walls', SURF_ID='Gypsum wall', SAWTOOTH=.FALSE.,
      XB=1.325,1.425,-0.775,-0.725,1.225,1.275, /
&OBST ID='Wall', FYI='Voxelized walls', SURF_ID='Gypsum wall', SAWTOOTH=.FALSE.,
      XB=1.325,1.475,-0.725,-0.675,1.275,1.325, /
&OBST ID='Wall', FYI='Voxelized walls', SURF_ID='Gypsum wall', SAWTOOTH=.FALSE.,
      XB=1.325,1.475,-0.725,-0.675,1.675,1.725, /
&OBST ID='Wall', FYI='Voxelized walls', SURF_ID='Gypsum wall', SAWTOOTH=.FALSE.,
      XB=1.375,1.425,-0.825,-0.775,1.125,1.175, /
&OBST ID='Wall', FYI='Voxelized walls', SURF_ID='Gypsum wall', SAWTOOTH=.FALSE.,
      XB=1.375,1.425,-0.825,-0.725,1.775,1.825, /
&OBST ID='Wall', FYI='Voxelized walls', SURF_ID='Gypsum wall', SAWTOOTH=.FALSE.,
      XB=1.375,1.425,-0.775,-0.675,1.725,1.775, /
&OBST ID='Wall', FYI='Voxelized walls', SURF_ID='Gypsum wall', SAWTOOTH=.FALSE.,
      XB=1.375,1.475,-0.675,-0.625,1.275,1.625, /
&OBST ID='Wall', FYI='Voxelized walls', SURF_ID='Gypsum wall', SAWTOOTH=.FALSE.,
      XB=1.375,1.575,-0.475,1.575,-0.025,3.025, /
&OBST ID='Wall', FYI='Voxelized walls', SURF_ID='Gypsum wall', SAWTOOTH=.FALSE.,
      XB=1.425,1.475,-0.725,-0.675,1.725,1.775, /
&OBST ID='Wall', FYI='Voxelized walls', SURF_ID='Gypsum wall', SAWTOOTH=.FALSE.,
      XB=1.575,1.625,-0.225,0.675,-0.025,3.025, /
&OBST ID='Box2', FYI='Supporting the burner', SURF_ID='Gypsum wall',
      XB=0.350,0.850,-0.650,-0.150,0.000,1.000, /

!!! Evacuation


!!! Control logic and output

&DEVC ID='Point smoke detector', PROP_ID='acme smoke detector', XYZ=0.000,0.000,2.700, /
! Slices of visibility
&SLCF QUANTITY='VISIBILITY', PBX=0.500, /
&SLCF QUANTITY='VISIBILITY', PBY=0.100, /
&DEVC ID='Point door breaker', FYI='This device breaks the door',
      QUANTITY='TEMPERATURE', SETPOINT=300., INITIAL_STATE=.TRUE., XYZ=-1.300,0.000,2.000, /
! Beam detectors
&DEVC ID='Beam detectors', FYI='Two beam detectors', QUANTITY='PATH OBSCURATION', SETPOINT=0.33 ,
      XB=0.029,-1.271,-1.235,1.307,2.500,2.500, /
&DEVC ID='Beam detectors', FYI='Two beam detectors', QUANTITY='PATH OBSCURATION', SETPOINT=0.33 ,
      XB=1.217,-1.271,0.043,1.307,2.500,2.500, /
! Slices of temp
&SLCF QUANTITY='TEMPERATURE', VECTOR=.TRUE., PBX=0.000, /
&SLCF QUANTITY='TEMPERATURE', VECTOR=.TRUE., PBY=0.600, /
! Thermocouple serie
&DEVC ID='Thermocouple serie', QUANTITY='THERMOCOUPLE', XYZ=-0.000,0.000,0.100, /
&DEVC ID='Thermocouple serie', QUANTITY='THERMOCOUPLE', XYZ=-0.000,0.000,0.400, /
&DEVC ID='Thermocouple serie', QUANTITY='THERMOCOUPLE', XYZ=-0.000,0.000,0.700, /
&DEVC ID='Thermocouple serie', QUANTITY='THERMOCOUPLE', XYZ=-0.000,0.000,1.000, /
&DEVC ID='Thermocouple serie', QUANTITY='THERMOCOUPLE', XYZ=-0.000,0.000,1.300, /
&DEVC ID='Thermocouple serie', QUANTITY='THERMOCOUPLE', XYZ=-0.000,0.000,1.600, /
&DEVC ID='Thermocouple serie', QUANTITY='THERMOCOUPLE', XYZ=-0.000,0.000,1.900, /
&DEVC ID='Thermocouple serie', QUANTITY='THERMOCOUPLE', XYZ=-0.000,0.000,2.200, /
&DEVC ID='Thermocouple serie', QUANTITY='THERMOCOUPLE', XYZ=-0.000,0.000,2.500, /

!!! Others


&TAIL /
